


 33 35  0  0  0  0  0  0  0  0999 V2000
   -6.7583    0.7067  -20.3528 C   0  0  0  0  0  0  0  0  0  0  0  0
   -7.4677    1.0360  -21.3425 O   0  0  0  0  0  0  0  0  0  0  0  0
   -7.2131    0.9922  -19.0216 N   0  0  0  0  0  0  0  0  0  0  0  0
   -6.7668    0.4873  -18.2232 H   0  0  0  0  0  0  0  0  0  0  0  0
   -3.8174    1.9109  -20.0205 C   0  0  0  0  0  0  0  0  0  0  0  0
   -4.1950    0.5291  -20.4429 C   0  0  0  0  0  0  0  0  0  0  0  0
   -3.3297   -0.4026  -20.7677 O   0  0  0  0  0  0  0  0  0  0  0  0
   -3.9276   -1.5088  -21.1041 N   0  0  0  0  0  0  0  0  0  0  0  0
   -5.2531   -1.2903  -20.9947 C   0  0  0  0  0  0  0  0  0  0  0  0
   -5.4715    0.0148  -20.5784 C   0  0  0  0  0  0  0  0  0  0  0  0
   -6.2687   -2.3351  -21.2303 C   0  0  0  0  0  0  0  0  0  0  0  0
   -6.6624   -3.2022  -20.1877 C   0  0  0  0  0  0  0  0  0  0  0  0
   -5.8978   -3.1518  -18.6018 Cl  0  0  0  0  0  0  0  0  0  0  0  0
   -7.6615   -4.1566  -20.4118 C   0  0  0  0  0  0  0  0  0  0  0  0
   -8.2652   -4.2625  -21.6645 C   0  0  0  0  0  0  0  0  0  0  0  0
   -7.8719   -3.4206  -22.7056 C   0  0  0  0  0  0  0  0  0  0  0  0
   -6.8748   -2.4593  -22.4981 C   0  0  0  0  0  0  0  0  0  0  0  0
   -6.4470   -1.3943  -23.8330 Cl  0  0  0  0  0  0  0  0  0  0  0  0
   -8.3160    1.9209  -18.7551 C   0  0  0  0  0  0  0  0  0  0  0  0
   -9.1739    1.4215  -17.5727 C   0  0  0  0  0  0  0  0  0  0  0  0
   -8.3086    0.9631  -16.4776 N   0  0  0  0  0  0  0  0  0  0  0  0
   -8.1579   -0.4879  -16.5931 C   0  0  0  0  0  0  0  0  0  0  0  0
   -9.5292   -1.1044  -16.9385 C   0  0  0  0  0  0  0  0  0  0  0  0
  -10.4704   -1.2463  -15.7257 C   0  0  0  0  0  0  0  0  0  0  0  0
   -9.3644   -2.4682  -17.6300 C   0  0  0  0  0  0  0  0  0  0  0  0
  -10.2854    0.0637  -18.1041 S   0  0  0  0  0  0  0  0  0  0  0  0
   -8.7858    1.1924  -15.5742 H   0  0  0  0  0  0  0  0  0  0  0  0
   -7.4938   -1.0735  -15.3653 C   0  0  0  0  0  0  0  0  0  0  0  0
   -7.5151   -0.3858  -14.1549 O   0  0  0  0  0  0  0  0  0  0  0  0
   -6.9282   -2.1974  -15.4188 O   0  0  0  0  0  0  0  0  0  0  0  0
   -7.9514    0.5241  -14.0696 H   0  0  0  0  0  0  0  0  0  0  0  0
   -7.7462    3.2804  -18.4506 C   0  0  0  0  0  0  0  0  0  0  0  0
   -7.8594    3.7633  -17.3356 O   0  0  0  0  0  0  0  0  0  0  0  0
  1 10  1  0  0  0
  1  2  2  0  0  0
  1  3  1  0  0  0
  3 19  1  0  0  0
  3  4  1  0  0  0
  5  6  1  0  0  0
  6  7  1  0  0  0
  6 10  2  0  0  0
  7  8  1  0  0  0
  8  9  2  0  0  0
  9 10  1  0  0  0
  9 11  1  0  0  0
 11 12  2  0  0  0
 11 17  1  0  0  0
 12 13  1  0  0  0
 12 14  1  0  0  0
 14 15  2  0  0  0
 15 16  1  0  0  0
 16 17  2  0  0  0
 17 18  1  0  0  0
 19 32  1  0  0  0
 19 20  1  0  0  0
 20 21  1  0  0  0
 20 26  1  0  0  0
 21 22  1  0  0  0
 21 27  1  0  0  0
 22 28  1  0  0  0
 22 23  1  0  0  0
 23 24  1  0  0  0
 23 25  1  0  0  0
 23 26  1  0  0  0
 28 29  1  0  0  0
 28 30  2  0  0  0
 29 31  1  0  0  0
 32 33  2  0  0  0
M  END
> <COMPND>
../0-casp/USpIc4.pdb

> <AUTHOR>
GENERATED BY OPEN BABEL 3.1.0

> <MASTER>
        0    0    0    0    0    0    0    0   33    0   33    0

> <minimizedAffinity>
-3.82648

> <CNNscore>
0.4920166433

> <CNNaffinity>
4.8863372803

> <CNN_VS>
2.4041593075

> <CNNaffinity_variance>
0.1709841639

$$$$



 33 35  0  0  0  0  0  0  0  0999 V2000
   -8.6879   -0.3178  -15.2196 C   0  0  0  0  0  0  0  0  0  0  0  0
   -9.5531   -1.2112  -15.0088 O   0  0  0  0  0  0  0  0  0  0  0  0
   -7.5132   -0.2531  -14.3971 N   0  0  0  0  0  0  0  0  0  0  0  0
   -6.6944    0.2981  -14.7396 H   0  0  0  0  0  0  0  0  0  0  0  0
   -8.6636    2.8728  -15.0514 C   0  0  0  0  0  0  0  0  0  0  0  0
   -8.8862    2.0248  -16.2603 C   0  0  0  0  0  0  0  0  0  0  0  0
   -9.1335    2.5018  -17.4576 O   0  0  0  0  0  0  0  0  0  0  0  0
   -9.2948    1.5452  -18.3254 N   0  0  0  0  0  0  0  0  0  0  0  0
   -9.1461    0.3813  -17.6623 C   0  0  0  0  0  0  0  0  0  0  0  0
   -8.8892    0.6434  -16.3246 C   0  0  0  0  0  0  0  0  0  0  0  0
   -9.1939   -0.9386  -18.3213 C   0  0  0  0  0  0  0  0  0  0  0  0
   -8.0428   -1.4755  -18.9383 C   0  0  0  0  0  0  0  0  0  0  0  0
   -6.5383   -0.5659  -19.0438 Cl  0  0  0  0  0  0  0  0  0  0  0  0
   -8.0894   -2.7491  -19.5170 C   0  0  0  0  0  0  0  0  0  0  0  0
   -9.2714   -3.4888  -19.4959 C   0  0  0  0  0  0  0  0  0  0  0  0
  -10.4185   -2.9605  -18.9023 C   0  0  0  0  0  0  0  0  0  0  0  0
  -10.3889   -1.6883  -18.3175 C   0  0  0  0  0  0  0  0  0  0  0  0
  -11.8520   -1.0872  -17.5445 Cl  0  0  0  0  0  0  0  0  0  0  0  0
   -7.4074   -0.9790  -13.1275 C   0  0  0  0  0  0  0  0  0  0  0  0
   -6.1775   -1.9121  -13.1353 C   0  0  0  0  0  0  0  0  0  0  0  0
   -6.1637   -2.7210  -14.3615 N   0  0  0  0  0  0  0  0  0  0  0  0
   -6.7721   -4.0171  -14.0589 C   0  0  0  0  0  0  0  0  0  0  0  0
   -6.2557   -4.5011  -12.6882 C   0  0  0  0  0  0  0  0  0  0  0  0
   -4.8432   -5.1170  -12.7380 C   0  0  0  0  0  0  0  0  0  0  0  0
   -7.2352   -5.4996  -12.0491 C   0  0  0  0  0  0  0  0  0  0  0  0
   -6.1815   -3.0049  -11.6631 S   0  0  0  0  0  0  0  0  0  0  0  0
   -5.1645   -2.8626  -14.6412 H   0  0  0  0  0  0  0  0  0  0  0  0
   -6.5700   -4.9999  -15.1924 C   0  0  0  0  0  0  0  0  0  0  0  0
   -7.3574   -6.1445  -15.2838 O   0  0  0  0  0  0  0  0  0  0  0  0
   -5.6985   -4.7865  -16.0761 O   0  0  0  0  0  0  0  0  0  0  0  0
   -8.0637   -6.3589  -14.5905 H   0  0  0  0  0  0  0  0  0  0  0  0
   -7.3016    0.0167  -12.0036 C   0  0  0  0  0  0  0  0  0  0  0  0
   -7.1675    1.2061  -12.2412 O   0  0  0  0  0  0  0  0  0  0  0  0
  1 10  1  0  0  0
  1  2  2  0  0  0
  1  3  1  0  0  0
  3 19  1  0  0  0
  3  4  1  0  0  0
  5  6  1  0  0  0
  6  7  1  0  0  0
  6 10  2  0  0  0
  7  8  1  0  0  0
  8  9  2  0  0  0
  9 10  1  0  0  0
  9 11  1  0  0  0
 11 12  2  0  0  0
 11 17  1  0  0  0
 12 13  1  0  0  0
 12 14  1  0  0  0
 14 15  2  0  0  0
 15 16  1  0  0  0
 16 17  2  0  0  0
 17 18  1  0  0  0
 19 32  1  0  0  0
 19 20  1  0  0  0
 20 21  1  0  0  0
 20 26  1  0  0  0
 21 22  1  0  0  0
 21 27  1  0  0  0
 22 28  1  0  0  0
 22 23  1  0  0  0
 23 24  1  0  0  0
 23 25  1  0  0  0
 23 26  1  0  0  0
 28 29  1  0  0  0
 28 30  2  0  0  0
 29 31  1  0  0  0
 32 33  2  0  0  0
M  END
> <COMPND>
../0-casp/USpIc4.pdb

> <AUTHOR>
GENERATED BY OPEN BABEL 3.1.0

> <MASTER>
        0    0    0    0    0    0    0    0   33    0   33    0

> <minimizedAffinity>
-4.13877

> <CNNscore>
0.4880517423

> <CNNaffinity>
5.0450115204

> <CNN_VS>
2.4622266293

> <CNNaffinity_variance>
0.0462846383

$$$$



 33 35  0  0  0  0  0  0  0  0999 V2000
   -9.2188    3.8985  -13.3245 C   0  0  0  0  0  0  0  0  0  0  0  0
  -10.3066    3.4396  -13.7688 O   0  0  0  0  0  0  0  0  0  0  0  0
   -8.1472    3.0021  -12.9948 N   0  0  0  0  0  0  0  0  0  0  0  0
   -7.1838    3.3932  -12.8919 H   0  0  0  0  0  0  0  0  0  0  0  0
  -10.2511    5.7163  -10.9081 C   0  0  0  0  0  0  0  0  0  0  0  0
   -9.5053    6.1547  -12.1254 C   0  0  0  0  0  0  0  0  0  0  0  0
   -9.1832    7.4009  -12.3813 O   0  0  0  0  0  0  0  0  0  0  0  0
   -8.5444    7.5035  -13.5107 N   0  0  0  0  0  0  0  0  0  0  0  0
   -8.4433    6.2603  -14.0215 C   0  0  0  0  0  0  0  0  0  0  0  0
   -9.0571    5.3591  -13.1640 C   0  0  0  0  0  0  0  0  0  0  0  0
   -7.7217    5.9544  -15.2722 C   0  0  0  0  0  0  0  0  0  0  0  0
   -6.3101    5.9648  -15.3080 C   0  0  0  0  0  0  0  0  0  0  0  0
   -5.3510    6.4387  -13.9088 Cl  0  0  0  0  0  0  0  0  0  0  0  0
   -5.6381    5.6254  -16.4880 C   0  0  0  0  0  0  0  0  0  0  0  0
   -6.3565    5.2853  -17.6340 C   0  0  0  0  0  0  0  0  0  0  0  0
   -7.7517    5.2873  -17.6130 C   0  0  0  0  0  0  0  0  0  0  0  0
   -8.4398    5.6231  -16.4403 C   0  0  0  0  0  0  0  0  0  0  0  0
  -10.1994    5.5680  -16.4564 Cl  0  0  0  0  0  0  0  0  0  0  0  0
   -8.3521    1.5569  -12.8561 C   0  0  0  0  0  0  0  0  0  0  0  0
   -8.2345    0.8568  -14.2270 C   0  0  0  0  0  0  0  0  0  0  0  0
   -9.5675    0.6678  -14.8148 N   0  0  0  0  0  0  0  0  0  0  0  0
  -10.0177   -0.6877  -14.4960 C   0  0  0  0  0  0  0  0  0  0  0  0
   -8.8356   -1.6611  -14.6823 C   0  0  0  0  0  0  0  0  0  0  0  0
   -8.5678   -2.0398  -16.1526 C   0  0  0  0  0  0  0  0  0  0  0  0
   -9.0317   -2.9363  -13.8453 C   0  0  0  0  0  0  0  0  0  0  0  0
   -7.3875   -0.7607  -14.0603 S   0  0  0  0  0  0  0  0  0  0  0  0
   -9.4775    0.7691  -15.8532 H   0  0  0  0  0  0  0  0  0  0  0  0
  -11.2643   -1.0525  -15.2734 C   0  0  0  0  0  0  0  0  0  0  0  0
  -12.0542   -2.1285  -14.8773 O   0  0  0  0  0  0  0  0  0  0  0  0
  -11.6119   -0.3774  -16.2781 O   0  0  0  0  0  0  0  0  0  0  0  0
  -11.8070   -2.7028  -14.0807 H   0  0  0  0  0  0  0  0  0  0  0  0
   -7.3279    1.0085  -11.8991 C   0  0  0  0  0  0  0  0  0  0  0  0
   -6.5140    1.7496  -11.3722 O   0  0  0  0  0  0  0  0  0  0  0  0
  1 10  1  0  0  0
  1  2  2  0  0  0
  1  3  1  0  0  0
  3 19  1  0  0  0
  3  4  1  0  0  0
  5  6  1  0  0  0
  6  7  1  0  0  0
  6 10  2  0  0  0
  7  8  1  0  0  0
  8  9  2  0  0  0
  9 10  1  0  0  0
  9 11  1  0  0  0
 11 12  2  0  0  0
 11 17  1  0  0  0
 12 13  1  0  0  0
 12 14  1  0  0  0
 14 15  2  0  0  0
 15 16  1  0  0  0
 16 17  2  0  0  0
 17 18  1  0  0  0
 19 32  1  0  0  0
 19 20  1  0  0  0
 20 21  1  0  0  0
 20 26  1  0  0  0
 21 22  1  0  0  0
 21 27  1  0  0  0
 22 28  1  0  0  0
 22 23  1  0  0  0
 23 24  1  0  0  0
 23 25  1  0  0  0
 23 26  1  0  0  0
 28 29  1  0  0  0
 28 30  2  0  0  0
 29 31  1  0  0  0
 32 33  2  0  0  0
M  END
> <COMPND>
../0-casp/USpIc4.pdb

> <AUTHOR>
GENERATED BY OPEN BABEL 3.1.0

> <MASTER>
        0    0    0    0    0    0    0    0   33    0   33    0

> <minimizedAffinity>
-4.64015

> <CNNscore>
0.4765266776

> <CNNaffinity>
4.9627184868

> <CNN_VS>
2.3648676872

> <CNNaffinity_variance>
0.1553804427

$$$$



 33 35  0  0  0  0  0  0  0  0999 V2000
   -6.4836   -2.3919  -19.1592 C   0  0  0  0  0  0  0  0  0  0  0  0
   -5.2751   -2.7486  -19.0992 O   0  0  0  0  0  0  0  0  0  0  0  0
   -7.3034   -2.4459  -17.9821 N   0  0  0  0  0  0  0  0  0  0  0  0
   -8.1981   -1.9066  -17.9724 H   0  0  0  0  0  0  0  0  0  0  0  0
   -8.6493   -3.8333  -21.0143 C   0  0  0  0  0  0  0  0  0  0  0  0
   -7.9684   -2.5259  -21.2539 C   0  0  0  0  0  0  0  0  0  0  0  0
   -8.1641   -1.7786  -22.3148 O   0  0  0  0  0  0  0  0  0  0  0  0
   -7.4393   -0.6982  -22.2743 N   0  0  0  0  0  0  0  0  0  0  0  0
   -6.7317   -0.7402  -21.1279 C   0  0  0  0  0  0  0  0  0  0  0  0
   -7.0360   -1.9067  -20.4417 C   0  0  0  0  0  0  0  0  0  0  0  0
   -5.8353    0.3471  -20.6888 C   0  0  0  0  0  0  0  0  0  0  0  0
   -4.4452    0.2719  -20.9257 C   0  0  0  0  0  0  0  0  0  0  0  0
   -3.7049   -1.1506  -21.6539 Cl  0  0  0  0  0  0  0  0  0  0  0  0
   -3.6132    1.3320  -20.5474 C   0  0  0  0  0  0  0  0  0  0  0  0
   -4.1491    2.4607  -19.9280 C   0  0  0  0  0  0  0  0  0  0  0  0
   -5.5193    2.5377  -19.6755 C   0  0  0  0  0  0  0  0  0  0  0  0
   -6.3663    1.4866  -20.0487 C   0  0  0  0  0  0  0  0  0  0  0  0
   -8.0925    1.6536  -19.7458 Cl  0  0  0  0  0  0  0  0  0  0  0  0
   -6.8982   -3.1827  -16.7809 C   0  0  0  0  0  0  0  0  0  0  0  0
   -7.9575   -3.0330  -15.6679 C   0  0  0  0  0  0  0  0  0  0  0  0
   -8.3218   -1.6195  -15.5026 N   0  0  0  0  0  0  0  0  0  0  0  0
   -7.5247   -1.0689  -14.4058 C   0  0  0  0  0  0  0  0  0  0  0  0
   -7.4798   -2.0986  -13.2580 C   0  0  0  0  0  0  0  0  0  0  0  0
   -8.7543   -2.1190  -12.3908 C   0  0  0  0  0  0  0  0  0  0  0  0
   -6.2476   -1.8780  -12.3646 C   0  0  0  0  0  0  0  0  0  0  0  0
   -7.3338   -3.7094  -14.0819 S   0  0  0  0  0  0  0  0  0  0  0  0
   -9.3372   -1.5773  -15.2499 H   0  0  0  0  0  0  0  0  0  0  0  0
   -8.0153    0.3051  -14.0023 C   0  0  0  0  0  0  0  0  0  0  0  0
   -9.1027    0.8852  -14.6500 O   0  0  0  0  0  0  0  0  0  0  0  0
   -7.4567    0.9338  -13.0650 O   0  0  0  0  0  0  0  0  0  0  0  0
   -9.5756    0.4183  -15.4141 H   0  0  0  0  0  0  0  0  0  0  0  0
   -6.7150   -4.6336  -17.1371 C   0  0  0  0  0  0  0  0  0  0  0  0
   -5.6489   -5.1912  -16.9326 O   0  0  0  0  0  0  0  0  0  0  0  0
  1 10  1  0  0  0
  1  2  2  0  0  0
  1  3  1  0  0  0
  3 19  1  0  0  0
  3  4  1  0  0  0
  5  6  1  0  0  0
  6  7  1  0  0  0
  6 10  2  0  0  0
  7  8  1  0  0  0
  8  9  2  0  0  0
  9 10  1  0  0  0
  9 11  1  0  0  0
 11 12  2  0  0  0
 11 17  1  0  0  0
 12 13  1  0  0  0
 12 14  1  0  0  0
 14 15  2  0  0  0
 15 16  1  0  0  0
 16 17  2  0  0  0
 17 18  1  0  0  0
 19 32  1  0  0  0
 19 20  1  0  0  0
 20 21  1  0  0  0
 20 26  1  0  0  0
 21 22  1  0  0  0
 21 27  1  0  0  0
 22 28  1  0  0  0
 22 23  1  0  0  0
 23 24  1  0  0  0
 23 25  1  0  0  0
 23 26  1  0  0  0
 28 29  1  0  0  0
 28 30  2  0  0  0
 29 31  1  0  0  0
 32 33  2  0  0  0
M  END
> <COMPND>
../0-casp/USpIc4.pdb

> <AUTHOR>
GENERATED BY OPEN BABEL 3.1.0

> <MASTER>
        0    0    0    0    0    0    0    0   33    0   33    0

> <minimizedAffinity>
-4.54252

> <CNNscore>
0.4580630958

> <CNNaffinity>
4.9380235672

> <CNN_VS>
2.2619264126

> <CNNaffinity_variance>
0.1161824614

$$$$



 33 35  0  0  0  0  0  0  0  0999 V2000
   -7.0033    0.8088  -20.7799 C   0  0  0  0  0  0  0  0  0  0  0  0
   -7.5000    0.7921  -21.9393 O   0  0  0  0  0  0  0  0  0  0  0  0
   -7.8590    0.9707  -19.6387 N   0  0  0  0  0  0  0  0  0  0  0  0
   -7.4870    0.7155  -18.6964 H   0  0  0  0  0  0  0  0  0  0  0  0
   -4.9073    2.9880  -19.7470 C   0  0  0  0  0  0  0  0  0  0  0  0
   -4.6286    1.5834  -20.1710 C   0  0  0  0  0  0  0  0  0  0  0  0
   -3.4312    1.0468  -20.1961 O   0  0  0  0  0  0  0  0  0  0  0  0
   -3.4722   -0.1856  -20.6129 N   0  0  0  0  0  0  0  0  0  0  0  0
   -4.7631   -0.4710  -20.8749 C   0  0  0  0  0  0  0  0  0  0  0  0
   -5.5438    0.6449  -20.6114 C   0  0  0  0  0  0  0  0  0  0  0  0
   -5.2262   -1.8032  -21.3100 C   0  0  0  0  0  0  0  0  0  0  0  0
   -5.0476   -2.2249  -22.6458 C   0  0  0  0  0  0  0  0  0  0  0  0
   -4.3668   -1.1584  -23.8711 Cl  0  0  0  0  0  0  0  0  0  0  0  0
   -5.4475   -3.5092  -23.0329 C   0  0  0  0  0  0  0  0  0  0  0  0
   -6.0312   -4.3734  -22.1071 C   0  0  0  0  0  0  0  0  0  0  0  0
   -6.2262   -3.9604  -20.7886 C   0  0  0  0  0  0  0  0  0  0  0  0
   -5.8307   -2.6792  -20.3841 C   0  0  0  0  0  0  0  0  0  0  0  0
   -6.0604   -2.2244  -18.6989 Cl  0  0  0  0  0  0  0  0  0  0  0  0
   -9.2476    1.4253  -19.7615 C   0  0  0  0  0  0  0  0  0  0  0  0
  -10.1117    0.8483  -18.6198 C   0  0  0  0  0  0  0  0  0  0  0  0
  -10.1946    1.8098  -17.5122 N   0  0  0  0  0  0  0  0  0  0  0  0
   -9.1782    1.4523  -16.5218 C   0  0  0  0  0  0  0  0  0  0  0  0
   -9.1704   -0.0804  -16.3482 C   0  0  0  0  0  0  0  0  0  0  0  0
  -10.3064   -0.6104  -15.4505 C   0  0  0  0  0  0  0  0  0  0  0  0
   -7.8144   -0.5697  -15.8125 C   0  0  0  0  0  0  0  0  0  0  0  0
   -9.4201   -0.7405  -18.0206 S   0  0  0  0  0  0  0  0  0  0  0  0
  -11.1453    1.7225  -17.0820 H   0  0  0  0  0  0  0  0  0  0  0  0
   -9.3608    2.2321  -15.2373 C   0  0  0  0  0  0  0  0  0  0  0  0
   -8.2879    2.4294  -14.3721 O   0  0  0  0  0  0  0  0  0  0  0  0
  -10.4811    2.7263  -14.9429 O   0  0  0  0  0  0  0  0  0  0  0  0
   -7.3724    2.0426  -14.5659 H   0  0  0  0  0  0  0  0  0  0  0  0
   -9.2732    2.9299  -19.7281 C   0  0  0  0  0  0  0  0  0  0  0  0
   -8.3747    3.5522  -19.1853 O   0  0  0  0  0  0  0  0  0  0  0  0
  1 10  1  0  0  0
  1  2  2  0  0  0
  1  3  1  0  0  0
  3 19  1  0  0  0
  3  4  1  0  0  0
  5  6  1  0  0  0
  6  7  1  0  0  0
  6 10  2  0  0  0
  7  8  1  0  0  0
  8  9  2  0  0  0
  9 10  1  0  0  0
  9 11  1  0  0  0
 11 12  2  0  0  0
 11 17  1  0  0  0
 12 13  1  0  0  0
 12 14  1  0  0  0
 14 15  2  0  0  0
 15 16  1  0  0  0
 16 17  2  0  0  0
 17 18  1  0  0  0
 19 32  1  0  0  0
 19 20  1  0  0  0
 20 21  1  0  0  0
 20 26  1  0  0  0
 21 22  1  0  0  0
 21 27  1  0  0  0
 22 28  1  0  0  0
 22 23  1  0  0  0
 23 24  1  0  0  0
 23 25  1  0  0  0
 23 26  1  0  0  0
 28 29  1  0  0  0
 28 30  2  0  0  0
 29 31  1  0  0  0
 32 33  2  0  0  0
M  END
> <COMPND>
../0-casp/USpIc4.pdb

> <AUTHOR>
GENERATED BY OPEN BABEL 3.1.0

> <MASTER>
        0    0    0    0    0    0    0    0   33    0   33    0

> <minimizedAffinity>
-3.80658

> <CNNscore>
0.4365999401

> <CNNaffinity>
4.8323864937

> <CNN_VS>
2.1098196507

> <CNNaffinity_variance>
0.3408060670

$$$$



 33 35  0  0  0  0  0  0  0  0999 V2000
   -6.8220   -2.4976  -19.4099 C   0  0  0  0  0  0  0  0  0  0  0  0
   -5.7191   -2.8309  -18.8964 O   0  0  0  0  0  0  0  0  0  0  0  0
   -8.0050   -2.4581  -18.5978 N   0  0  0  0  0  0  0  0  0  0  0  0
   -8.8356   -1.9324  -18.9518 H   0  0  0  0  0  0  0  0  0  0  0  0
   -8.0428   -4.2232  -21.8061 C   0  0  0  0  0  0  0  0  0  0  0  0
   -7.3984   -2.8784  -21.8865 C   0  0  0  0  0  0  0  0  0  0  0  0
   -7.2229   -2.2128  -23.0038 O   0  0  0  0  0  0  0  0  0  0  0  0
   -6.6302   -1.0739  -22.7896 N   0  0  0  0  0  0  0  0  0  0  0  0
   -6.4051   -0.9893  -21.4634 C   0  0  0  0  0  0  0  0  0  0  0  0
   -6.8777   -2.1361  -20.8423 C   0  0  0  0  0  0  0  0  0  0  0  0
   -5.8044    0.1941  -20.8174 C   0  0  0  0  0  0  0  0  0  0  0  0
   -4.4016    0.3461  -20.7591 C   0  0  0  0  0  0  0  0  0  0  0  0
   -3.3089   -0.9011  -21.3529 Cl  0  0  0  0  0  0  0  0  0  0  0  0
   -3.8463    1.4964  -20.1868 C   0  0  0  0  0  0  0  0  0  0  0  0
   -4.6720    2.4914  -19.6643 C   0  0  0  0  0  0  0  0  0  0  0  0
   -6.0589    2.3432  -19.7031 C   0  0  0  0  0  0  0  0  0  0  0  0
   -6.6312    1.1992  -20.2733 C   0  0  0  0  0  0  0  0  0  0  0  0
   -8.3868    1.0825  -20.3351 Cl  0  0  0  0  0  0  0  0  0  0  0  0
   -8.0630   -3.0795  -17.2710 C   0  0  0  0  0  0  0  0  0  0  0  0
   -7.2892   -2.2315  -16.2389 C   0  0  0  0  0  0  0  0  0  0  0  0
   -6.1828   -3.0124  -15.6696 N   0  0  0  0  0  0  0  0  0  0  0  0
   -6.6383   -3.5935  -14.4061 C   0  0  0  0  0  0  0  0  0  0  0  0
   -7.4451   -2.5306  -13.6321 C   0  0  0  0  0  0  0  0  0  0  0  0
   -6.5680   -1.4955  -12.9000 C   0  0  0  0  0  0  0  0  0  0  0  0
   -8.4133   -3.1888  -12.6348 C   0  0  0  0  0  0  0  0  0  0  0  0
   -8.4049   -1.6578  -14.9017 S   0  0  0  0  0  0  0  0  0  0  0  0
   -5.3887   -2.3555  -15.4840 H   0  0  0  0  0  0  0  0  0  0  0  0
   -5.4883   -4.2008  -13.6314 C   0  0  0  0  0  0  0  0  0  0  0  0
   -5.7319   -5.0512  -12.5562 O   0  0  0  0  0  0  0  0  0  0  0  0
   -4.2970   -3.9578  -13.9597 O   0  0  0  0  0  0  0  0  0  0  0  0
   -6.6739   -5.2666  -12.2534 H   0  0  0  0  0  0  0  0  0  0  0  0
   -9.5043   -3.2177  -16.8595 C   0  0  0  0  0  0  0  0  0  0  0  0
  -10.3992   -3.0329  -17.6684 O   0  0  0  0  0  0  0  0  0  0  0  0
  1 10  1  0  0  0
  1  2  2  0  0  0
  1  3  1  0  0  0
  3 19  1  0  0  0
  3  4  1  0  0  0
  5  6  1  0  0  0
  6  7  1  0  0  0
  6 10  2  0  0  0
  7  8  1  0  0  0
  8  9  2  0  0  0
  9 10  1  0  0  0
  9 11  1  0  0  0
 11 12  2  0  0  0
 11 17  1  0  0  0
 12 13  1  0  0  0
 12 14  1  0  0  0
 14 15  2  0  0  0
 15 16  1  0  0  0
 16 17  2  0  0  0
 17 18  1  0  0  0
 19 32  1  0  0  0
 19 20  1  0  0  0
 20 21  1  0  0  0
 20 26  1  0  0  0
 21 22  1  0  0  0
 21 27  1  0  0  0
 22 28  1  0  0  0
 22 23  1  0  0  0
 23 24  1  0  0  0
 23 25  1  0  0  0
 23 26  1  0  0  0
 28 29  1  0  0  0
 28 30  2  0  0  0
 29 31  1  0  0  0
 32 33  2  0  0  0
M  END
> <COMPND>
../0-casp/USpIc4.pdb

> <AUTHOR>
GENERATED BY OPEN BABEL 3.1.0

> <MASTER>
        0    0    0    0    0    0    0    0   33    0   33    0

> <minimizedAffinity>
-4.55130

> <CNNscore>
0.4246786237

> <CNNaffinity>
5.0998220444

> <CNN_VS>
2.1657853127

> <CNNaffinity_variance>
0.0778186768

$$$$



 33 35  0  0  0  0  0  0  0  0999 V2000
   -9.3256   -1.4115  -12.5591 C   0  0  0  0  0  0  0  0  0  0  0  0
   -9.7003   -0.7864  -13.5888 O   0  0  0  0  0  0  0  0  0  0  0  0
  -10.2985   -1.8681  -11.6075 N   0  0  0  0  0  0  0  0  0  0  0  0
  -10.0165   -2.6014  -10.9189 H   0  0  0  0  0  0  0  0  0  0  0  0
   -7.3406    0.0631  -10.5356 C   0  0  0  0  0  0  0  0  0  0  0  0
   -7.0185   -1.0430  -11.4859 C   0  0  0  0  0  0  0  0  0  0  0  0
   -5.8212   -1.5593  -11.6346 O   0  0  0  0  0  0  0  0  0  0  0  0
   -5.8190   -2.5016  -12.5325 N   0  0  0  0  0  0  0  0  0  0  0  0
   -7.0799   -2.6077  -12.9966 C   0  0  0  0  0  0  0  0  0  0  0  0
   -7.8863   -1.6795  -12.3544 C   0  0  0  0  0  0  0  0  0  0  0  0
   -7.4960   -3.6188  -13.9882 C   0  0  0  0  0  0  0  0  0  0  0  0
   -7.8042   -4.9364  -13.5846 C   0  0  0  0  0  0  0  0  0  0  0  0
   -7.6104   -5.4636  -11.9152 Cl  0  0  0  0  0  0  0  0  0  0  0  0
   -8.2442   -5.8718  -14.5282 C   0  0  0  0  0  0  0  0  0  0  0  0
   -8.3713   -5.5118  -15.8695 C   0  0  0  0  0  0  0  0  0  0  0  0
   -8.0543   -4.2167  -16.2808 C   0  0  0  0  0  0  0  0  0  0  0  0
   -7.6139   -3.2679  -15.3494 C   0  0  0  0  0  0  0  0  0  0  0  0
   -7.2686   -1.6367  -15.9144 Cl  0  0  0  0  0  0  0  0  0  0  0  0
  -11.6819   -1.3820  -11.6099 C   0  0  0  0  0  0  0  0  0  0  0  0
  -12.6690   -2.5519  -11.8102 C   0  0  0  0  0  0  0  0  0  0  0  0
  -12.4823   -3.1498  -13.1390 N   0  0  0  0  0  0  0  0  0  0  0  0
  -13.4649   -2.5573  -14.0473 C   0  0  0  0  0  0  0  0  0  0  0  0
  -14.8204   -2.4581  -13.3175 C   0  0  0  0  0  0  0  0  0  0  0  0
  -15.5961   -3.7894  -13.2631 C   0  0  0  0  0  0  0  0  0  0  0  0
  -15.7060   -1.3664  -13.9412 C   0  0  0  0  0  0  0  0  0  0  0  0
  -14.4007   -1.9813  -11.6171 S   0  0  0  0  0  0  0  0  0  0  0  0
  -12.6612   -4.1783  -13.0561 H   0  0  0  0  0  0  0  0  0  0  0  0
  -13.5116   -3.2956  -15.3679 C   0  0  0  0  0  0  0  0  0  0  0  0
  -14.0468   -2.6860  -16.4995 O   0  0  0  0  0  0  0  0  0  0  0  0
  -13.0520   -4.4641  -15.4639 O   0  0  0  0  0  0  0  0  0  0  0  0
  -14.4347   -1.7512  -16.4648 H   0  0  0  0  0  0  0  0  0  0  0  0
  -11.9559   -0.6838  -10.3049 C   0  0  0  0  0  0  0  0  0  0  0  0
  -11.7432    0.5120  -10.1862 O   0  0  0  0  0  0  0  0  0  0  0  0
  1 10  1  0  0  0
  1  2  2  0  0  0
  1  3  1  0  0  0
  3 19  1  0  0  0
  3  4  1  0  0  0
  5  6  1  0  0  0
  6  7  1  0  0  0
  6 10  2  0  0  0
  7  8  1  0  0  0
  8  9  2  0  0  0
  9 10  1  0  0  0
  9 11  1  0  0  0
 11 12  2  0  0  0
 11 17  1  0  0  0
 12 13  1  0  0  0
 12 14  1  0  0  0
 14 15  2  0  0  0
 15 16  1  0  0  0
 16 17  2  0  0  0
 17 18  1  0  0  0
 19 32  1  0  0  0
 19 20  1  0  0  0
 20 21  1  0  0  0
 20 26  1  0  0  0
 21 22  1  0  0  0
 21 27  1  0  0  0
 22 28  1  0  0  0
 22 23  1  0  0  0
 23 24  1  0  0  0
 23 25  1  0  0  0
 23 26  1  0  0  0
 28 29  1  0  0  0
 28 30  2  0  0  0
 29 31  1  0  0  0
 32 33  2  0  0  0
M  END
> <COMPND>
../0-casp/USpIc4.pdb

> <AUTHOR>
GENERATED BY OPEN BABEL 3.1.0

> <MASTER>
        0    0    0    0    0    0    0    0   33    0   33    0

> <minimizedAffinity>
-4.18924

> <CNNscore>
0.3990330994

> <CNNaffinity>
5.0842871666

> <CNN_VS>
2.0287988186

> <CNNaffinity_variance>
0.2351531088

$$$$



 33 35  0  0  0  0  0  0  0  0999 V2000
   -8.7781    0.5512  -16.7499 C   0  0  0  0  0  0  0  0  0  0  0  0
   -9.7682   -0.2284  -16.8060 O   0  0  0  0  0  0  0  0  0  0  0  0
   -7.8480    0.6041  -17.8419 N   0  0  0  0  0  0  0  0  0  0  0  0
   -7.2040    1.4240  -17.9091 H   0  0  0  0  0  0  0  0  0  0  0  0
   -7.6510   -0.2958  -13.8826 C   0  0  0  0  0  0  0  0  0  0  0  0
   -8.1167    1.0550  -14.3169 C   0  0  0  0  0  0  0  0  0  0  0  0
   -8.1451    2.1092  -13.5359 O   0  0  0  0  0  0  0  0  0  0  0  0
   -8.6018    3.1534  -14.1646 N   0  0  0  0  0  0  0  0  0  0  0  0
   -8.8880    2.7629  -15.4225 C   0  0  0  0  0  0  0  0  0  0  0  0
   -8.5979    1.4137  -15.5628 C   0  0  0  0  0  0  0  0  0  0  0  0
   -9.3712    3.6866  -16.4675 C   0  0  0  0  0  0  0  0  0  0  0  0
   -8.4715    4.5377  -17.1458 C   0  0  0  0  0  0  0  0  0  0  0  0
   -6.7657    4.6159  -16.7143 Cl  0  0  0  0  0  0  0  0  0  0  0  0
   -8.9356    5.3735  -18.1681 C   0  0  0  0  0  0  0  0  0  0  0  0
  -10.2863    5.3774  -18.5151 C   0  0  0  0  0  0  0  0  0  0  0  0
  -11.1859    4.5514  -17.8401 C   0  0  0  0  0  0  0  0  0  0  0  0
  -10.7381    3.7080  -16.8157 C   0  0  0  0  0  0  0  0  0  0  0  0
  -11.9074    2.6550  -16.0260 Cl  0  0  0  0  0  0  0  0  0  0  0  0
   -7.8142   -0.4210  -18.8898 C   0  0  0  0  0  0  0  0  0  0  0  0
   -7.4002    0.1974  -20.2424 C   0  0  0  0  0  0  0  0  0  0  0  0
   -6.4030   -0.6544  -20.9043 N   0  0  0  0  0  0  0  0  0  0  0  0
   -5.0743   -0.1250  -20.5948 C   0  0  0  0  0  0  0  0  0  0  0  0
   -5.1152    1.4136  -20.6994 C   0  0  0  0  0  0  0  0  0  0  0  0
   -5.0453    1.9405  -22.1465 C   0  0  0  0  0  0  0  0  0  0  0  0
   -3.9986    2.0552  -19.8588 C   0  0  0  0  0  0  0  0  0  0  0  0
   -6.7249    1.8855  -20.0057 S   0  0  0  0  0  0  0  0  0  0  0  0
   -6.5678   -0.5983  -21.9369 H   0  0  0  0  0  0  0  0  0  0  0  0
   -4.0060   -0.7868  -21.4387 C   0  0  0  0  0  0  0  0  0  0  0  0
   -2.6864   -0.8356  -20.9970 O   0  0  0  0  0  0  0  0  0  0  0  0
   -4.2999   -1.3160  -22.5429 O   0  0  0  0  0  0  0  0  0  0  0  0
   -2.4051   -0.4154  -20.1197 H   0  0  0  0  0  0  0  0  0  0  0  0
   -6.8426   -1.4980  -18.4876 C   0  0  0  0  0  0  0  0  0  0  0  0
   -7.2144   -2.4483  -17.8184 O   0  0  0  0  0  0  0  0  0  0  0  0
  1 10  1  0  0  0
  1  2  2  0  0  0
  1  3  1  0  0  0
  3 19  1  0  0  0
  3  4  1  0  0  0
  5  6  1  0  0  0
  6  7  1  0  0  0
  6 10  2  0  0  0
  7  8  1  0  0  0
  8  9  2  0  0  0
  9 10  1  0  0  0
  9 11  1  0  0  0
 11 12  2  0  0  0
 11 17  1  0  0  0
 12 13  1  0  0  0
 12 14  1  0  0  0
 14 15  2  0  0  0
 15 16  1  0  0  0
 16 17  2  0  0  0
 17 18  1  0  0  0
 19 32  1  0  0  0
 19 20  1  0  0  0
 20 21  1  0  0  0
 20 26  1  0  0  0
 21 22  1  0  0  0
 21 27  1  0  0  0
 22 28  1  0  0  0
 22 23  1  0  0  0
 23 24  1  0  0  0
 23 25  1  0  0  0
 23 26  1  0  0  0
 28 29  1  0  0  0
 28 30  2  0  0  0
 29 31  1  0  0  0
 32 33  2  0  0  0
M  END
> <COMPND>
../0-casp/USpIc4.pdb

> <AUTHOR>
GENERATED BY OPEN BABEL 3.1.0

> <MASTER>
        0    0    0    0    0    0    0    0   33    0   33    0

> <minimizedAffinity>
-4.37738

> <CNNscore>
0.3935028613

> <CNNaffinity>
5.0248770714

> <CNN_VS>
1.9773035049

> <CNNaffinity_variance>
0.0582920425

$$$$



 33 35  0  0  0  0  0  0  0  0999 V2000
   -8.1700   -0.5108  -13.6595 C   0  0  0  0  0  0  0  0  0  0  0  0
   -9.3987   -0.2816  -13.4898 O   0  0  0  0  0  0  0  0  0  0  0  0
   -7.5775   -0.3084  -14.9512 N   0  0  0  0  0  0  0  0  0  0  0  0
   -6.5373   -0.2371  -15.0171 H   0  0  0  0  0  0  0  0  0  0  0  0
   -6.9095    1.2709  -11.3259 C   0  0  0  0  0  0  0  0  0  0  0  0
   -6.7972   -0.2072  -11.5069 C   0  0  0  0  0  0  0  0  0  0  0  0
   -6.1179   -0.9963  -10.7080 O   0  0  0  0  0  0  0  0  0  0  0  0
   -6.1798   -2.2358  -11.1003 N   0  0  0  0  0  0  0  0  0  0  0  0
   -6.9383   -2.2600  -12.2142 C   0  0  0  0  0  0  0  0  0  0  0  0
   -7.3515   -0.9711  -12.5177 C   0  0  0  0  0  0  0  0  0  0  0  0
   -7.2965   -3.5038  -12.9237 C   0  0  0  0  0  0  0  0  0  0  0  0
   -8.6099   -4.0179  -12.8536 C   0  0  0  0  0  0  0  0  0  0  0  0
   -9.8453   -3.2698  -11.8455 Cl  0  0  0  0  0  0  0  0  0  0  0  0
   -8.9483   -5.1714  -13.5705 C   0  0  0  0  0  0  0  0  0  0  0  0
   -7.9913   -5.8228  -14.3481 C   0  0  0  0  0  0  0  0  0  0  0  0
   -6.6868   -5.3314  -14.4114 C   0  0  0  0  0  0  0  0  0  0  0  0
   -6.3316   -4.1776  -13.7014 C   0  0  0  0  0  0  0  0  0  0  0  0
   -4.6837   -3.5762  -13.8503 Cl  0  0  0  0  0  0  0  0  0  0  0  0
   -8.3850   -0.1422  -16.1638 C   0  0  0  0  0  0  0  0  0  0  0  0
   -8.3930    1.3345  -16.6137 C   0  0  0  0  0  0  0  0  0  0  0  0
   -8.6765    2.2108  -15.4693 N   0  0  0  0  0  0  0  0  0  0  0  0
  -10.1084    2.5132  -15.4710 C   0  0  0  0  0  0  0  0  0  0  0  0
  -10.5549    2.7979  -16.9199 C   0  0  0  0  0  0  0  0  0  0  0  0
  -10.2018    4.2156  -17.4122 C   0  0  0  0  0  0  0  0  0  0  0  0
  -12.0625    2.5486  -17.0934 C   0  0  0  0  0  0  0  0  0  0  0  0
   -9.6363    1.6049  -17.9339 S   0  0  0  0  0  0  0  0  0  0  0  0
   -8.1339    3.0966  -15.6013 H   0  0  0  0  0  0  0  0  0  0  0  0
  -10.4425    3.6083  -14.4809 C   0  0  0  0  0  0  0  0  0  0  0  0
  -11.7440    3.7626  -14.0108 O   0  0  0  0  0  0  0  0  0  0  0  0
   -9.5447    4.3831  -14.0572 O   0  0  0  0  0  0  0  0  0  0  0  0
  -12.4976    3.1671  -14.3314 H   0  0  0  0  0  0  0  0  0  0  0  0
   -7.8195   -1.0172  -17.2503 C   0  0  0  0  0  0  0  0  0  0  0  0
   -8.2101   -2.1652  -17.3864 O   0  0  0  0  0  0  0  0  0  0  0  0
  1 10  1  0  0  0
  1  2  2  0  0  0
  1  3  1  0  0  0
  3 19  1  0  0  0
  3  4  1  0  0  0
  5  6  1  0  0  0
  6  7  1  0  0  0
  6 10  2  0  0  0
  7  8  1  0  0  0
  8  9  2  0  0  0
  9 10  1  0  0  0
  9 11  1  0  0  0
 11 12  2  0  0  0
 11 17  1  0  0  0
 12 13  1  0  0  0
 12 14  1  0  0  0
 14 15  2  0  0  0
 15 16  1  0  0  0
 16 17  2  0  0  0
 17 18  1  0  0  0
 19 32  1  0  0  0
 19 20  1  0  0  0
 20 21  1  0  0  0
 20 26  1  0  0  0
 21 22  1  0  0  0
 21 27  1  0  0  0
 22 28  1  0  0  0
 22 23  1  0  0  0
 23 24  1  0  0  0
 23 25  1  0  0  0
 23 26  1  0  0  0
 28 29  1  0  0  0
 28 30  2  0  0  0
 29 31  1  0  0  0
 32 33  2  0  0  0
M  END
> <COMPND>
../0-casp/USpIc4.pdb

> <AUTHOR>
GENERATED BY OPEN BABEL 3.1.0

> <MASTER>
        0    0    0    0    0    0    0    0   33    0   33    0

> <minimizedAffinity>
-4.08970

> <CNNscore>
0.3917774260

> <CNNaffinity>
5.1987624168

> <CNN_VS>
2.0367577076

> <CNNaffinity_variance>
0.2242595404

$$$$
