


 33 35  0  0  0  0  0  0  0  0999 V2000
   -8.4959    2.4389  -15.2262 C   0  0  0  0  0  0  0  0  0  0  0  0
   -9.3753    1.6117  -14.8607 O   0  0  0  0  0  0  0  0  0  0  0  0
   -8.8904    3.7147  -15.7526 N   0  0  0  0  0  0  0  0  0  0  0  0
   -8.1787    4.4784  -15.7949 H   0  0  0  0  0  0  0  0  0  0  0  0
   -6.5596    3.0717  -12.7646 C   0  0  0  0  0  0  0  0  0  0  0  0
   -6.2193    2.3621  -14.0338 C   0  0  0  0  0  0  0  0  0  0  0  0
   -5.0232    1.9067  -14.3235 O   0  0  0  0  0  0  0  0  0  0  0  0
   -5.0026    1.3385  -15.4944 N   0  0  0  0  0  0  0  0  0  0  0  0
   -6.2497    1.4268  -15.9981 C   0  0  0  0  0  0  0  0  0  0  0  0
   -7.0662    2.0875  -15.0920 C   0  0  0  0  0  0  0  0  0  0  0  0
   -6.6449    0.8354  -17.2913 C   0  0  0  0  0  0  0  0  0  0  0  0
   -7.0771   -0.5069  -17.3652 C   0  0  0  0  0  0  0  0  0  0  0  0
   -7.0679   -1.5624  -15.9552 Cl  0  0  0  0  0  0  0  0  0  0  0  0
   -7.4952   -1.0404  -18.5898 C   0  0  0  0  0  0  0  0  0  0  0  0
   -7.4786   -0.2549  -19.7420 C   0  0  0  0  0  0  0  0  0  0  0  0
   -7.0385    1.0680  -19.6822 C   0  0  0  0  0  0  0  0  0  0  0  0
   -6.6180    1.6179  -18.4648 C   0  0  0  0  0  0  0  0  0  0  0  0
   -6.1132    3.3043  -18.4370 Cl  0  0  0  0  0  0  0  0  0  0  0  0
  -10.2663    3.9937  -16.1757 C   0  0  0  0  0  0  0  0  0  0  0  0
  -10.8291    5.2184  -15.4229 C   0  0  0  0  0  0  0  0  0  0  0  0
  -10.1226    5.3970  -14.1474 N   0  0  0  0  0  0  0  0  0  0  0  0
  -10.9151    4.7603  -13.0947 C   0  0  0  0  0  0  0  0  0  0  0  0
  -12.4038    5.0944  -13.3220 C   0  0  0  0  0  0  0  0  0  0  0  0
  -12.8048    6.5041  -12.8435 C   0  0  0  0  0  0  0  0  0  0  0  0
  -13.3135    4.0442  -12.6628 C   0  0  0  0  0  0  0  0  0  0  0  0
  -12.6275    5.0262  -15.1221 S   0  0  0  0  0  0  0  0  0  0  0  0
  -10.0558    6.4249  -13.9588 H   0  0  0  0  0  0  0  0  0  0  0  0
  -10.3917    5.1142  -11.7191 C   0  0  0  0  0  0  0  0  0  0  0  0
  -11.1878    5.8188  -10.8201 O   0  0  0  0  0  0  0  0  0  0  0  0
   -9.2359    4.7617  -11.3645 O   0  0  0  0  0  0  0  0  0  0  0  0
  -12.1197    6.1288  -11.0671 H   0  0  0  0  0  0  0  0  0  0  0  0
  -10.2796    4.2408  -17.6605 C   0  0  0  0  0  0  0  0  0  0  0  0
  -10.7614    3.4166  -18.4206 O   0  0  0  0  0  0  0  0  0  0  0  0
  1 10  1  0  0  0
  1  2  2  0  0  0
  1  3  1  0  0  0
  3 19  1  0  0  0
  3  4  1  0  0  0
  5  6  1  0  0  0
  6  7  1  0  0  0
  6 10  2  0  0  0
  7  8  1  0  0  0
  8  9  2  0  0  0
  9 10  1  0  0  0
  9 11  1  0  0  0
 11 12  2  0  0  0
 11 17  1  0  0  0
 12 13  1  0  0  0
 12 14  1  0  0  0
 14 15  2  0  0  0
 15 16  1  0  0  0
 16 17  2  0  0  0
 17 18  1  0  0  0
 19 32  1  0  0  0
 19 20  1  0  0  0
 20 21  1  0  0  0
 20 26  1  0  0  0
 21 22  1  0  0  0
 21 27  1  0  0  0
 22 28  1  0  0  0
 22 23  1  0  0  0
 23 24  1  0  0  0
 23 25  1  0  0  0
 23 26  1  0  0  0
 28 29  1  0  0  0
 28 30  2  0  0  0
 29 31  1  0  0  0
 32 33  2  0  0  0
M  END
> <COMPND>
../0-casp/USpIc4.pdb

> <AUTHOR>
GENERATED BY OPEN BABEL 3.1.0

> <MASTER>
        0    0    0    0    0    0    0    0   33    0   33    0

> <minimizedAffinity>
-6.42876

> <CNNscore>
0.6570979357

> <CNNaffinity>
5.4205350876

> <CNN_VS>
3.5618224144

> <CNNaffinity_variance>
0.2968432605

$$$$



 33 35  0  0  0  0  0  0  0  0999 V2000
   -7.0192    4.4931  -13.6221 C   0  0  0  0  0  0  0  0  0  0  0  0
   -6.8117    5.7372  -13.6427 O   0  0  0  0  0  0  0  0  0  0  0  0
   -8.3529    3.9944  -13.4409 N   0  0  0  0  0  0  0  0  0  0  0  0
   -8.5520    3.0001  -13.6926 H   0  0  0  0  0  0  0  0  0  0  0  0
   -4.6780    3.8574  -11.5426 C   0  0  0  0  0  0  0  0  0  0  0  0
   -4.8634    3.2864  -12.9101 C   0  0  0  0  0  0  0  0  0  0  0  0
   -4.0402    2.4292  -13.4667 O   0  0  0  0  0  0  0  0  0  0  0  0
   -4.4341    2.1017  -14.6633 N   0  0  0  0  0  0  0  0  0  0  0  0
   -5.5738    2.7799  -14.9033 C   0  0  0  0  0  0  0  0  0  0  0  0
   -5.8838    3.5634  -13.8014 C   0  0  0  0  0  0  0  0  0  0  0  0
   -6.3644    2.6239  -16.1399 C   0  0  0  0  0  0  0  0  0  0  0  0
   -7.0830    1.4338  -16.3878 C   0  0  0  0  0  0  0  0  0  0  0  0
   -6.9911    0.0520  -15.2996 Cl  0  0  0  0  0  0  0  0  0  0  0  0
   -7.8674    1.3182  -17.5412 C   0  0  0  0  0  0  0  0  0  0  0  0
   -7.9363    2.3704  -18.4539 C   0  0  0  0  0  0  0  0  0  0  0  0
   -7.2175    3.5444  -18.2256 C   0  0  0  0  0  0  0  0  0  0  0  0
   -6.4288    3.6773  -17.0759 C   0  0  0  0  0  0  0  0  0  0  0  0
   -5.5767    5.1957  -16.8153 Cl  0  0  0  0  0  0  0  0  0  0  0  0
   -9.4491    4.8476  -12.9714 C   0  0  0  0  0  0  0  0  0  0  0  0
  -10.8138    4.2583  -13.3881 C   0  0  0  0  0  0  0  0  0  0  0  0
  -10.6802    3.5133  -14.6471 N   0  0  0  0  0  0  0  0  0  0  0  0
  -11.0648    4.4015  -15.7448 C   0  0  0  0  0  0  0  0  0  0  0  0
  -12.3220    5.1922  -15.3277 C   0  0  0  0  0  0  0  0  0  0  0  0
  -13.6315    4.3879  -15.4504 C   0  0  0  0  0  0  0  0  0  0  0  0
  -12.4410    6.5025  -16.1240 C   0  0  0  0  0  0  0  0  0  0  0  0
  -12.0651    5.5854  -13.5743 S   0  0  0  0  0  0  0  0  0  0  0  0
  -11.3393    2.7004  -14.6104 H   0  0  0  0  0  0  0  0  0  0  0  0
  -11.1999    3.6425  -17.0476 C   0  0  0  0  0  0  0  0  0  0  0  0
  -11.5889    2.3057  -17.0492 O   0  0  0  0  0  0  0  0  0  0  0  0
  -10.9783    4.2150  -18.1471 O   0  0  0  0  0  0  0  0  0  0  0  0
  -11.7687    1.8047  -16.1877 H   0  0  0  0  0  0  0  0  0  0  0  0
   -9.3665    4.9678  -11.4733 C   0  0  0  0  0  0  0  0  0  0  0  0
   -8.8964    5.9691  -10.9578 O   0  0  0  0  0  0  0  0  0  0  0  0
  1 10  1  0  0  0
  1  2  2  0  0  0
  1  3  1  0  0  0
  3 19  1  0  0  0
  3  4  1  0  0  0
  5  6  1  0  0  0
  6  7  1  0  0  0
  6 10  2  0  0  0
  7  8  1  0  0  0
  8  9  2  0  0  0
  9 10  1  0  0  0
  9 11  1  0  0  0
 11 12  2  0  0  0
 11 17  1  0  0  0
 12 13  1  0  0  0
 12 14  1  0  0  0
 14 15  2  0  0  0
 15 16  1  0  0  0
 16 17  2  0  0  0
 17 18  1  0  0  0
 19 32  1  0  0  0
 19 20  1  0  0  0
 20 21  1  0  0  0
 20 26  1  0  0  0
 21 22  1  0  0  0
 21 27  1  0  0  0
 22 28  1  0  0  0
 22 23  1  0  0  0
 23 24  1  0  0  0
 23 25  1  0  0  0
 23 26  1  0  0  0
 28 29  1  0  0  0
 28 30  2  0  0  0
 29 31  1  0  0  0
 32 33  2  0  0  0
M  END
> <COMPND>
../0-casp/USpIc4.pdb

> <AUTHOR>
GENERATED BY OPEN BABEL 3.1.0

> <MASTER>
        0    0    0    0    0    0    0    0   33    0   33    0

> <minimizedAffinity>
-6.39508

> <CNNscore>
0.4598273933

> <CNNaffinity>
5.4289994240

> <CNN_VS>
2.4964027405

> <CNNaffinity_variance>
0.2911099792

$$$$



 33 35  0  0  0  0  0  0  0  0999 V2000
   -9.1149    1.4480  -15.5917 C   0  0  0  0  0  0  0  0  0  0  0  0
   -9.2193    0.9502  -14.4374 O   0  0  0  0  0  0  0  0  0  0  0  0
   -9.0515    0.5863  -16.7380 N   0  0  0  0  0  0  0  0  0  0  0  0
   -9.2372    0.9962  -17.6809 H   0  0  0  0  0  0  0  0  0  0  0  0
  -11.1155    3.2786  -17.2816 C   0  0  0  0  0  0  0  0  0  0  0  0
   -9.9323    3.7170  -16.4827 C   0  0  0  0  0  0  0  0  0  0  0  0
   -9.5314    4.9628  -16.3857 O   0  0  0  0  0  0  0  0  0  0  0  0
   -8.4728    5.0635  -15.6351 N   0  0  0  0  0  0  0  0  0  0  0  0
   -8.1638    3.8192  -15.2194 C   0  0  0  0  0  0  0  0  0  0  0  0
   -9.0750    2.9174  -15.7492 C   0  0  0  0  0  0  0  0  0  0  0  0
   -7.0547    3.5274  -14.2903 C   0  0  0  0  0  0  0  0  0  0  0  0
   -5.9080    2.8339  -14.7357 C   0  0  0  0  0  0  0  0  0  0  0  0
   -5.7878    2.1978  -16.3737 Cl  0  0  0  0  0  0  0  0  0  0  0  0
   -4.8429    2.6066  -13.8565 C   0  0  0  0  0  0  0  0  0  0  0  0
   -4.9116    3.0540  -12.5374 C   0  0  0  0  0  0  0  0  0  0  0  0
   -6.0468    3.7264  -12.0835 C   0  0  0  0  0  0  0  0  0  0  0  0
   -7.1210    3.9634  -12.9503 C   0  0  0  0  0  0  0  0  0  0  0  0
   -8.5109    4.8541  -12.3383 Cl  0  0  0  0  0  0  0  0  0  0  0  0
   -8.7929   -0.8523  -16.6207 C   0  0  0  0  0  0  0  0  0  0  0  0
   -9.1558   -1.5788  -17.9336 C   0  0  0  0  0  0  0  0  0  0  0  0
   -7.9344   -1.9607  -18.6550 N   0  0  0  0  0  0  0  0  0  0  0  0
   -7.6536   -0.9283  -19.6535 C   0  0  0  0  0  0  0  0  0  0  0  0
   -8.9770   -0.5203  -20.3329 C   0  0  0  0  0  0  0  0  0  0  0  0
   -9.4518   -1.5110  -21.4147 C   0  0  0  0  0  0  0  0  0  0  0  0
   -8.8794    0.8933  -20.9305 C   0  0  0  0  0  0  0  0  0  0  0  0
  -10.2052   -0.5153  -18.9963 S   0  0  0  0  0  0  0  0  0  0  0  0
   -8.1187   -2.8711  -19.1385 H   0  0  0  0  0  0  0  0  0  0  0  0
   -6.5627   -1.3652  -20.6076 C   0  0  0  0  0  0  0  0  0  0  0  0
   -5.8537   -0.4238  -21.3489 O   0  0  0  0  0  0  0  0  0  0  0  0
   -6.2714   -2.5842  -20.7309 O   0  0  0  0  0  0  0  0  0  0  0  0
   -6.0610    0.5655  -21.2866 H   0  0  0  0  0  0  0  0  0  0  0  0
   -7.3392   -1.0615  -16.2914 C   0  0  0  0  0  0  0  0  0  0  0  0
   -6.9496   -2.1368  -15.8660 O   0  0  0  0  0  0  0  0  0  0  0  0
  1 10  1  0  0  0
  1  2  2  0  0  0
  1  3  1  0  0  0
  3 19  1  0  0  0
  3  4  1  0  0  0
  5  6  1  0  0  0
  6  7  1  0  0  0
  6 10  2  0  0  0
  7  8  1  0  0  0
  8  9  2  0  0  0
  9 10  1  0  0  0
  9 11  1  0  0  0
 11 12  2  0  0  0
 11 17  1  0  0  0
 12 13  1  0  0  0
 12 14  1  0  0  0
 14 15  2  0  0  0
 15 16  1  0  0  0
 16 17  2  0  0  0
 17 18  1  0  0  0
 19 32  1  0  0  0
 19 20  1  0  0  0
 20 21  1  0  0  0
 20 26  1  0  0  0
 21 22  1  0  0  0
 21 27  1  0  0  0
 22 28  1  0  0  0
 22 23  1  0  0  0
 23 24  1  0  0  0
 23 25  1  0  0  0
 23 26  1  0  0  0
 28 29  1  0  0  0
 28 30  2  0  0  0
 29 31  1  0  0  0
 32 33  2  0  0  0
M  END
> <COMPND>
../0-casp/USpIc4.pdb

> <AUTHOR>
GENERATED BY OPEN BABEL 3.1.0

> <MASTER>
        0    0    0    0    0    0    0    0   33    0   33    0

> <minimizedAffinity>
-5.59236

> <CNNscore>
0.4215109944

> <CNNaffinity>
5.2503385544

> <CNN_VS>
2.2130753994

> <CNNaffinity_variance>
0.1895376295

$$$$



 33 35  0  0  0  0  0  0  0  0999 V2000
   -7.2399    4.8383  -16.1503 C   0  0  0  0  0  0  0  0  0  0  0  0
   -7.4362    5.0989  -17.3689 O   0  0  0  0  0  0  0  0  0  0  0  0
   -8.2566    5.1398  -15.1829 N   0  0  0  0  0  0  0  0  0  0  0  0
   -8.2026    4.6842  -14.2443 H   0  0  0  0  0  0  0  0  0  0  0  0
   -4.5601    6.3038  -15.2123 C   0  0  0  0  0  0  0  0  0  0  0  0
   -4.8015    4.8352  -15.3352 C   0  0  0  0  0  0  0  0  0  0  0  0
   -3.8973    3.9179  -15.0839 O   0  0  0  0  0  0  0  0  0  0  0  0
   -4.3693    2.7205  -15.2783 N   0  0  0  0  0  0  0  0  0  0  0  0
   -5.6488    2.8607  -15.6783 C   0  0  0  0  0  0  0  0  0  0  0  0
   -5.9676    4.2095  -15.7367 C   0  0  0  0  0  0  0  0  0  0  0  0
   -6.5467    1.7181  -15.9369 C   0  0  0  0  0  0  0  0  0  0  0  0
   -6.5275    1.0575  -17.1848 C   0  0  0  0  0  0  0  0  0  0  0  0
   -5.5200    1.6198  -18.5156 Cl  0  0  0  0  0  0  0  0  0  0  0  0
   -7.3494   -0.0549  -17.3998 C   0  0  0  0  0  0  0  0  0  0  0  0
   -8.1960   -0.5100  -16.3893 C   0  0  0  0  0  0  0  0  0  0  0  0
   -8.2336    0.1455  -15.1581 C   0  0  0  0  0  0  0  0  0  0  0  0
   -7.4168    1.2592  -14.9258 C   0  0  0  0  0  0  0  0  0  0  0  0
   -7.4720    2.0227  -13.3404 Cl  0  0  0  0  0  0  0  0  0  0  0  0
   -9.3916    6.0162  -15.4894 C   0  0  0  0  0  0  0  0  0  0  0  0
  -10.5559    5.7615  -14.5081 C   0  0  0  0  0  0  0  0  0  0  0  0
  -11.2797    4.5407  -14.8875 N   0  0  0  0  0  0  0  0  0  0  0  0
  -12.4378    4.9298  -15.6931 C   0  0  0  0  0  0  0  0  0  0  0  0
  -13.0944    6.1706  -15.0536 C   0  0  0  0  0  0  0  0  0  0  0  0
  -13.9840    5.8459  -13.8371 C   0  0  0  0  0  0  0  0  0  0  0  0
  -13.9044    6.9650  -16.0918 C   0  0  0  0  0  0  0  0  0  0  0  0
  -11.7058    7.1892  -14.4796 S   0  0  0  0  0  0  0  0  0  0  0  0
  -11.6079    4.0760  -14.0084 H   0  0  0  0  0  0  0  0  0  0  0  0
  -13.3755    3.7618  -15.9120 C   0  0  0  0  0  0  0  0  0  0  0  0
  -13.4935    2.7610  -14.9513 O   0  0  0  0  0  0  0  0  0  0  0  0
  -14.0729    3.6889  -16.9581 O   0  0  0  0  0  0  0  0  0  0  0  0
  -12.9455    2.7760  -14.0999 H   0  0  0  0  0  0  0  0  0  0  0  0
   -8.9387    7.4490  -15.4033 C   0  0  0  0  0  0  0  0  0  0  0  0
   -8.1088    7.7871  -14.5750 O   0  0  0  0  0  0  0  0  0  0  0  0
  1 10  1  0  0  0
  1  2  2  0  0  0
  1  3  1  0  0  0
  3 19  1  0  0  0
  3  4  1  0  0  0
  5  6  1  0  0  0
  6  7  1  0  0  0
  6 10  2  0  0  0
  7  8  1  0  0  0
  8  9  2  0  0  0
  9 10  1  0  0  0
  9 11  1  0  0  0
 11 12  2  0  0  0
 11 17  1  0  0  0
 12 13  1  0  0  0
 12 14  1  0  0  0
 14 15  2  0  0  0
 15 16  1  0  0  0
 16 17  2  0  0  0
 17 18  1  0  0  0
 19 32  1  0  0  0
 19 20  1  0  0  0
 20 21  1  0  0  0
 20 26  1  0  0  0
 21 22  1  0  0  0
 21 27  1  0  0  0
 22 28  1  0  0  0
 22 23  1  0  0  0
 23 24  1  0  0  0
 23 25  1  0  0  0
 23 26  1  0  0  0
 28 29  1  0  0  0
 28 30  2  0  0  0
 29 31  1  0  0  0
 32 33  2  0  0  0
M  END
> <COMPND>
../0-casp/USpIc4.pdb

> <AUTHOR>
GENERATED BY OPEN BABEL 3.1.0

> <MASTER>
        0    0    0    0    0    0    0    0   33    0   33    0

> <minimizedAffinity>
-6.41533

> <CNNscore>
0.4162714481

> <CNNaffinity>
5.1920471191

> <CNN_VS>
2.1613008976

> <CNNaffinity_variance>
0.1274626106

$$$$



 33 35  0  0  0  0  0  0  0  0999 V2000
   -7.1532    2.9293  -16.8932 C   0  0  0  0  0  0  0  0  0  0  0  0
   -5.9989    2.8415  -17.3944 O   0  0  0  0  0  0  0  0  0  0  0  0
   -7.9521    4.0960  -17.1402 N   0  0  0  0  0  0  0  0  0  0  0  0
   -8.9794    4.0449  -16.9571 H   0  0  0  0  0  0  0  0  0  0  0  0
   -7.5564   -0.1181  -17.7650 C   0  0  0  0  0  0  0  0  0  0  0  0
   -7.8579    0.4988  -16.4389 C   0  0  0  0  0  0  0  0  0  0  0  0
   -8.3707   -0.1553  -15.4232 O   0  0  0  0  0  0  0  0  0  0  0  0
   -8.5389    0.6232  -14.3938 N   0  0  0  0  0  0  0  0  0  0  0  0
   -8.1151    1.8510  -14.7537 C   0  0  0  0  0  0  0  0  0  0  0  0
   -7.6746    1.8186  -16.0686 C   0  0  0  0  0  0  0  0  0  0  0  0
   -8.0854    3.0012  -13.8292 C   0  0  0  0  0  0  0  0  0  0  0  0
   -6.8787    3.3939  -13.2097 C   0  0  0  0  0  0  0  0  0  0  0  0
   -5.3877    2.4810  -13.4230 Cl  0  0  0  0  0  0  0  0  0  0  0  0
   -6.8551    4.5159  -12.3733 C   0  0  0  0  0  0  0  0  0  0  0  0
   -8.0211    5.2446  -12.1403 C   0  0  0  0  0  0  0  0  0  0  0  0
   -9.2217    4.8553  -12.7354 C   0  0  0  0  0  0  0  0  0  0  0  0
   -9.2627    3.7359  -13.5761 C   0  0  0  0  0  0  0  0  0  0  0  0
  -10.7941    3.3140  -14.3353 Cl  0  0  0  0  0  0  0  0  0  0  0  0
   -7.3836    5.3298  -17.6922 C   0  0  0  0  0  0  0  0  0  0  0  0
   -8.5037    6.2774  -18.1726 C   0  0  0  0  0  0  0  0  0  0  0  0
   -9.0718    7.0085  -17.0321 N   0  0  0  0  0  0  0  0  0  0  0  0
  -10.2722    6.2987  -16.5884 C   0  0  0  0  0  0  0  0  0  0  0  0
  -11.0753    5.8561  -17.8289 C   0  0  0  0  0  0  0  0  0  0  0  0
  -11.9133    6.9845  -18.4623 C   0  0  0  0  0  0  0  0  0  0  0  0
  -11.9815    4.6571  -17.5025 C   0  0  0  0  0  0  0  0  0  0  0  0
   -9.8218    5.3403  -19.0363 S   0  0  0  0  0  0  0  0  0  0  0  0
   -9.3366    7.9656  -17.3643 H   0  0  0  0  0  0  0  0  0  0  0  0
  -11.0585    7.1166  -15.5863 C   0  0  0  0  0  0  0  0  0  0  0  0
  -10.9547    8.5050  -15.5710 O   0  0  0  0  0  0  0  0  0  0  0  0
  -11.8290    6.5531  -14.7649 O   0  0  0  0  0  0  0  0  0  0  0  0
  -10.3409    8.9979  -16.2080 H   0  0  0  0  0  0  0  0  0  0  0  0
   -6.5500    5.9995  -16.6329 C   0  0  0  0  0  0  0  0  0  0  0  0
   -5.5202    6.5818  -16.9321 O   0  0  0  0  0  0  0  0  0  0  0  0
  1 10  1  0  0  0
  1  2  2  0  0  0
  1  3  1  0  0  0
  3 19  1  0  0  0
  3  4  1  0  0  0
  5  6  1  0  0  0
  6  7  1  0  0  0
  6 10  2  0  0  0
  7  8  1  0  0  0
  8  9  2  0  0  0
  9 10  1  0  0  0
  9 11  1  0  0  0
 11 12  2  0  0  0
 11 17  1  0  0  0
 12 13  1  0  0  0
 12 14  1  0  0  0
 14 15  2  0  0  0
 15 16  1  0  0  0
 16 17  2  0  0  0
 17 18  1  0  0  0
 19 32  1  0  0  0
 19 20  1  0  0  0
 20 21  1  0  0  0
 20 26  1  0  0  0
 21 22  1  0  0  0
 21 27  1  0  0  0
 22 28  1  0  0  0
 22 23  1  0  0  0
 23 24  1  0  0  0
 23 25  1  0  0  0
 23 26  1  0  0  0
 28 29  1  0  0  0
 28 30  2  0  0  0
 29 31  1  0  0  0
 32 33  2  0  0  0
M  END
> <COMPND>
../0-casp/USpIc4.pdb

> <AUTHOR>
GENERATED BY OPEN BABEL 3.1.0

> <MASTER>
        0    0    0    0    0    0    0    0   33    0   33    0

> <minimizedAffinity>
-5.03561

> <CNNscore>
0.3975562751

> <CNNaffinity>
4.7576055527

> <CNN_VS>
1.8914159536

> <CNNaffinity_variance>
0.3582529724

$$$$



 33 35  0  0  0  0  0  0  0  0999 V2000
   -7.9233    3.8940  -14.5607 C   0  0  0  0  0  0  0  0  0  0  0  0
   -7.9225    4.9209  -15.2933 O   0  0  0  0  0  0  0  0  0  0  0  0
   -8.9736    3.7020  -13.6014 N   0  0  0  0  0  0  0  0  0  0  0  0
   -9.1162    2.7470  -13.2025 H   0  0  0  0  0  0  0  0  0  0  0  0
   -5.4521    3.3815  -12.6013 C   0  0  0  0  0  0  0  0  0  0  0  0
   -5.7713    2.6667  -13.8730 C   0  0  0  0  0  0  0  0  0  0  0  0
   -5.0333    1.7090  -14.3834 O   0  0  0  0  0  0  0  0  0  0  0  0
   -5.5358    1.2664  -15.4995 N   0  0  0  0  0  0  0  0  0  0  0  0
   -6.6609    1.9709  -15.7328 C   0  0  0  0  0  0  0  0  0  0  0  0
   -6.8472    2.8918  -14.7122 C   0  0  0  0  0  0  0  0  0  0  0  0
   -7.5544    1.7146  -16.8793 C   0  0  0  0  0  0  0  0  0  0  0  0
   -8.4971    0.6641  -16.8346 C   0  0  0  0  0  0  0  0  0  0  0  0
   -8.5840   -0.4455  -15.4695 Cl  0  0  0  0  0  0  0  0  0  0  0  0
   -9.3711    0.4628  -17.9092 C   0  0  0  0  0  0  0  0  0  0  0  0
   -9.3099    1.2898  -19.0304 C   0  0  0  0  0  0  0  0  0  0  0  0
   -8.3713    2.3207  -19.0908 C   0  0  0  0  0  0  0  0  0  0  0  0
   -7.4903    2.5368  -18.0238 C   0  0  0  0  0  0  0  0  0  0  0  0
   -6.3550    3.8780  -18.1332 Cl  0  0  0  0  0  0  0  0  0  0  0  0
   -9.8825    4.7843  -13.2107 C   0  0  0  0  0  0  0  0  0  0  0  0
  -11.3451    4.4085  -13.5311 C   0  0  0  0  0  0  0  0  0  0  0  0
  -11.4164    3.7037  -14.8181 N   0  0  0  0  0  0  0  0  0  0  0  0
  -11.7540    4.6804  -15.8542 C   0  0  0  0  0  0  0  0  0  0  0  0
  -12.8499    5.6213  -15.3127 C   0  0  0  0  0  0  0  0  0  0  0  0
  -14.2661    5.0133  -15.3510 C   0  0  0  0  0  0  0  0  0  0  0  0
  -12.8421    6.9665  -16.0580 C   0  0  0  0  0  0  0  0  0  0  0  0
  -12.4054    5.9037  -13.5755 S   0  0  0  0  0  0  0  0  0  0  0  0
  -12.1796    2.9899  -14.7511 H   0  0  0  0  0  0  0  0  0  0  0  0
  -12.0956    4.0010  -17.1631 C   0  0  0  0  0  0  0  0  0  0  0  0
  -12.6558    2.7264  -17.1722 O   0  0  0  0  0  0  0  0  0  0  0  0
  -11.8929    4.5864  -18.2595 O   0  0  0  0  0  0  0  0  0  0  0  0
  -12.8277    2.2166  -16.3142 H   0  0  0  0  0  0  0  0  0  0  0  0
   -9.7210    5.0492  -11.7378 C   0  0  0  0  0  0  0  0  0  0  0  0
   -8.6915    4.7365  -11.1621 O   0  0  0  0  0  0  0  0  0  0  0  0
  1 10  1  0  0  0
  1  2  2  0  0  0
  1  3  1  0  0  0
  3 19  1  0  0  0
  3  4  1  0  0  0
  5  6  1  0  0  0
  6  7  1  0  0  0
  6 10  2  0  0  0
  7  8  1  0  0  0
  8  9  2  0  0  0
  9 10  1  0  0  0
  9 11  1  0  0  0
 11 12  2  0  0  0
 11 17  1  0  0  0
 12 13  1  0  0  0
 12 14  1  0  0  0
 14 15  2  0  0  0
 15 16  1  0  0  0
 16 17  2  0  0  0
 17 18  1  0  0  0
 19 32  1  0  0  0
 19 20  1  0  0  0
 20 21  1  0  0  0
 20 26  1  0  0  0
 21 22  1  0  0  0
 21 27  1  0  0  0
 22 28  1  0  0  0
 22 23  1  0  0  0
 23 24  1  0  0  0
 23 25  1  0  0  0
 23 26  1  0  0  0
 28 29  1  0  0  0
 28 30  2  0  0  0
 29 31  1  0  0  0
 32 33  2  0  0  0
M  END
> <COMPND>
../0-casp/USpIc4.pdb

> <AUTHOR>
GENERATED BY OPEN BABEL 3.1.0

> <MASTER>
        0    0    0    0    0    0    0    0   33    0   33    0

> <minimizedAffinity>
-7.05222

> <CNNscore>
0.3916612864

> <CNNaffinity>
5.3015761375

> <CNN_VS>
2.0764222145

> <CNNaffinity_variance>
0.1492158622

$$$$



 33 35  0  0  0  0  0  0  0  0999 V2000
   -8.6211    3.1036  -16.8646 C   0  0  0  0  0  0  0  0  0  0  0  0
   -8.4566    3.5579  -18.0299 O   0  0  0  0  0  0  0  0  0  0  0  0
   -9.9378    3.0596  -16.2946 N   0  0  0  0  0  0  0  0  0  0  0  0
  -10.1013    2.4476  -15.4637 H   0  0  0  0  0  0  0  0  0  0  0  0
   -7.3756    4.3266  -14.1884 C   0  0  0  0  0  0  0  0  0  0  0  0
   -6.9041    3.1324  -14.9511 C   0  0  0  0  0  0  0  0  0  0  0  0
   -5.8582    2.4131  -14.6179 O   0  0  0  0  0  0  0  0  0  0  0  0
   -5.6666    1.4372  -15.4576 N   0  0  0  0  0  0  0  0  0  0  0  0
   -6.6367    1.5218  -16.3894 C   0  0  0  0  0  0  0  0  0  0  0  0
   -7.4535    2.6066  -16.1062 C   0  0  0  0  0  0  0  0  0  0  0  0
   -6.7968    0.5441  -17.4835 C   0  0  0  0  0  0  0  0  0  0  0  0
   -6.1725    0.7551  -18.7325 C   0  0  0  0  0  0  0  0  0  0  0  0
   -5.2687    2.2264  -19.0799 Cl  0  0  0  0  0  0  0  0  0  0  0  0
   -6.2928   -0.2037  -19.7451 C   0  0  0  0  0  0  0  0  0  0  0  0
   -7.0350   -1.3646  -19.5303 C   0  0  0  0  0  0  0  0  0  0  0  0
   -7.6685   -1.5750  -18.3050 C   0  0  0  0  0  0  0  0  0  0  0  0
   -7.5574   -0.6265  -17.2805 C   0  0  0  0  0  0  0  0  0  0  0  0
   -8.3407   -0.9615  -15.7399 Cl  0  0  0  0  0  0  0  0  0  0  0  0
  -11.0650    3.7970  -16.8738 C   0  0  0  0  0  0  0  0  0  0  0  0
  -11.8402    2.9100  -17.8715 C   0  0  0  0  0  0  0  0  0  0  0  0
  -11.6007    3.3669  -19.2470 N   0  0  0  0  0  0  0  0  0  0  0  0
  -12.7039    4.2477  -19.6329 C   0  0  0  0  0  0  0  0  0  0  0  0
  -14.0284    3.6330  -19.1356 C   0  0  0  0  0  0  0  0  0  0  0  0
  -14.5582    2.4924  -20.0275 C   0  0  0  0  0  0  0  0  0  0  0  0
  -15.1126    4.7116  -18.9737 C   0  0  0  0  0  0  0  0  0  0  0  0
  -13.6366    2.9371  -17.5055 S   0  0  0  0  0  0  0  0  0  0  0  0
  -11.5948    2.5241  -19.8686 H   0  0  0  0  0  0  0  0  0  0  0  0
  -12.6694    4.5592  -21.1138 C   0  0  0  0  0  0  0  0  0  0  0  0
  -12.0259    3.7010  -22.0015 O   0  0  0  0  0  0  0  0  0  0  0  0
  -13.2363    5.5898  -21.5639 O   0  0  0  0  0  0  0  0  0  0  0  0
  -11.5504    2.8662  -21.6814 H   0  0  0  0  0  0  0  0  0  0  0  0
  -11.9731    4.2516  -15.7628 C   0  0  0  0  0  0  0  0  0  0  0  0
  -11.5326    4.4358  -14.6398 O   0  0  0  0  0  0  0  0  0  0  0  0
  1 10  1  0  0  0
  1  2  2  0  0  0
  1  3  1  0  0  0
  3 19  1  0  0  0
  3  4  1  0  0  0
  5  6  1  0  0  0
  6  7  1  0  0  0
  6 10  2  0  0  0
  7  8  1  0  0  0
  8  9  2  0  0  0
  9 10  1  0  0  0
  9 11  1  0  0  0
 11 12  2  0  0  0
 11 17  1  0  0  0
 12 13  1  0  0  0
 12 14  1  0  0  0
 14 15  2  0  0  0
 15 16  1  0  0  0
 16 17  2  0  0  0
 17 18  1  0  0  0
 19 32  1  0  0  0
 19 20  1  0  0  0
 20 21  1  0  0  0
 20 26  1  0  0  0
 21 22  1  0  0  0
 21 27  1  0  0  0
 22 28  1  0  0  0
 22 23  1  0  0  0
 23 24  1  0  0  0
 23 25  1  0  0  0
 23 26  1  0  0  0
 28 29  1  0  0  0
 28 30  2  0  0  0
 29 31  1  0  0  0
 32 33  2  0  0  0
M  END
> <COMPND>
../0-casp/USpIc4.pdb

> <AUTHOR>
GENERATED BY OPEN BABEL 3.1.0

> <MASTER>
        0    0    0    0    0    0    0    0   33    0   33    0

> <minimizedAffinity>
-5.14287

> <CNNscore>
0.3756453991

> <CNNaffinity>
4.8135452271

> <CNN_VS>
1.8081861734

> <CNNaffinity_variance>
0.1481198519

$$$$



 33 35  0  0  0  0  0  0  0  0999 V2000
   -7.8818    3.9557  -14.4913 C   0  0  0  0  0  0  0  0  0  0  0  0
   -7.8188    5.0324  -15.1456 O   0  0  0  0  0  0  0  0  0  0  0  0
   -8.9865    3.7224  -13.6049 N   0  0  0  0  0  0  0  0  0  0  0  0
   -9.1715    2.7451  -13.2851 H   0  0  0  0  0  0  0  0  0  0  0  0
   -5.3940    3.4025  -12.5643 C   0  0  0  0  0  0  0  0  0  0  0  0
   -5.7386    2.6966  -13.8344 C   0  0  0  0  0  0  0  0  0  0  0  0
   -5.0202    1.7307  -14.3569 O   0  0  0  0  0  0  0  0  0  0  0  0
   -5.5425    1.2988  -15.4682 N   0  0  0  0  0  0  0  0  0  0  0  0
   -6.6606    2.0196  -15.6853 C   0  0  0  0  0  0  0  0  0  0  0  0
   -6.8216    2.9393  -14.6594 C   0  0  0  0  0  0  0  0  0  0  0  0
   -7.5715    1.7794  -16.8215 C   0  0  0  0  0  0  0  0  0  0  0  0
   -7.5000    2.5816  -17.9815 C   0  0  0  0  0  0  0  0  0  0  0  0
   -6.4062    3.9579  -18.0905 Cl  0  0  0  0  0  0  0  0  0  0  0  0
   -8.3367    2.3120  -19.0706 C   0  0  0  0  0  0  0  0  0  0  0  0
   -9.2494    1.2591  -19.0132 C   0  0  0  0  0  0  0  0  0  0  0  0
   -9.3385    0.4705  -17.8654 C   0  0  0  0  0  0  0  0  0  0  0  0
   -8.5078    0.7257  -16.7671 C   0  0  0  0  0  0  0  0  0  0  0  0
   -8.6313   -0.3263  -15.3608 Cl  0  0  0  0  0  0  0  0  0  0  0  0
   -9.8910    4.7970  -13.1840 C   0  0  0  0  0  0  0  0  0  0  0  0
  -11.3575    4.4249  -13.4907 C   0  0  0  0  0  0  0  0  0  0  0  0
  -11.4489    3.7639  -14.7995 N   0  0  0  0  0  0  0  0  0  0  0  0
  -11.8096    4.7736  -15.7955 C   0  0  0  0  0  0  0  0  0  0  0  0
  -12.8997    5.6899  -15.2025 C   0  0  0  0  0  0  0  0  0  0  0  0
  -14.3137    5.0763  -15.2362 C   0  0  0  0  0  0  0  0  0  0  0  0
  -12.9115    7.0597  -15.9016 C   0  0  0  0  0  0  0  0  0  0  0  0
  -12.4251    5.9153  -13.4650 S   0  0  0  0  0  0  0  0  0  0  0  0
  -12.2076    3.0443  -14.7432 H   0  0  0  0  0  0  0  0  0  0  0  0
  -12.1718    4.1373  -17.1204 C   0  0  0  0  0  0  0  0  0  0  0  0
  -12.7412    2.8674  -17.1620 O   0  0  0  0  0  0  0  0  0  0  0  0
  -11.9782    4.7550  -18.2006 O   0  0  0  0  0  0  0  0  0  0  0  0
  -12.9064    2.3325  -16.3181 H   0  0  0  0  0  0  0  0  0  0  0  0
   -9.7097    5.0376  -11.7092 C   0  0  0  0  0  0  0  0  0  0  0  0
   -8.6545    4.7609  -11.1622 O   0  0  0  0  0  0  0  0  0  0  0  0
  1 10  1  0  0  0
  1  2  2  0  0  0
  1  3  1  0  0  0
  3 19  1  0  0  0
  3  4  1  0  0  0
  5  6  1  0  0  0
  6  7  1  0  0  0
  6 10  2  0  0  0
  7  8  1  0  0  0
  8  9  2  0  0  0
  9 10  1  0  0  0
  9 11  1  0  0  0
 11 12  2  0  0  0
 11 17  1  0  0  0
 12 13  1  0  0  0
 12 14  1  0  0  0
 14 15  2  0  0  0
 15 16  1  0  0  0
 16 17  2  0  0  0
 17 18  1  0  0  0
 19 32  1  0  0  0
 19 20  1  0  0  0
 20 21  1  0  0  0
 20 26  1  0  0  0
 21 22  1  0  0  0
 21 27  1  0  0  0
 22 28  1  0  0  0
 22 23  1  0  0  0
 23 24  1  0  0  0
 23 25  1  0  0  0
 23 26  1  0  0  0
 28 29  1  0  0  0
 28 30  2  0  0  0
 29 31  1  0  0  0
 32 33  2  0  0  0
M  END
> <COMPND>
../0-casp/USpIc4.pdb

> <AUTHOR>
GENERATED BY OPEN BABEL 3.1.0

> <MASTER>
        0    0    0    0    0    0    0    0   33    0   33    0

> <minimizedAffinity>
-7.05756

> <CNNscore>
0.3736705482

> <CNNaffinity>
5.2919702530

> <CNN_VS>
1.9774534702

> <CNNaffinity_variance>
0.1638409197

$$$$



 33 35  0  0  0  0  0  0  0  0999 V2000
   -6.6201    1.5206  -17.6354 C   0  0  0  0  0  0  0  0  0  0  0  0
   -5.5295    2.0706  -17.3203 O   0  0  0  0  0  0  0  0  0  0  0  0
   -7.0192    1.4632  -19.0130 N   0  0  0  0  0  0  0  0  0  0  0  0
   -7.7652    0.7856  -19.2883 H   0  0  0  0  0  0  0  0  0  0  0  0
   -7.2132   -1.5780  -17.1294 C   0  0  0  0  0  0  0  0  0  0  0  0
   -7.7341   -0.4115  -16.3561 C   0  0  0  0  0  0  0  0  0  0  0  0
   -8.5564   -0.5122  -15.3383 O   0  0  0  0  0  0  0  0  0  0  0  0
   -8.8569    0.6579  -14.8536 N   0  0  0  0  0  0  0  0  0  0  0  0
   -8.1981    1.5725  -15.5926 C   0  0  0  0  0  0  0  0  0  0  0  0
   -7.4671    0.9270  -16.5791 C   0  0  0  0  0  0  0  0  0  0  0  0
   -8.2330    3.0206  -15.3093 C   0  0  0  0  0  0  0  0  0  0  0  0
   -9.2496    3.8349  -15.8548 C   0  0  0  0  0  0  0  0  0  0  0  0
  -10.4519    3.1935  -16.9707 Cl  0  0  0  0  0  0  0  0  0  0  0  0
   -9.2989    5.1975  -15.5387 C   0  0  0  0  0  0  0  0  0  0  0  0
   -8.3421    5.7589  -14.6936 C   0  0  0  0  0  0  0  0  0  0  0  0
   -7.3245    4.9657  -14.1620 C   0  0  0  0  0  0  0  0  0  0  0  0
   -7.2612    3.6003  -14.4669 C   0  0  0  0  0  0  0  0  0  0  0  0
   -5.9822    2.6368  -13.7353 Cl  0  0  0  0  0  0  0  0  0  0  0  0
   -6.3761    2.2795  -20.0475 C   0  0  0  0  0  0  0  0  0  0  0  0
   -5.4551    1.4111  -20.9311 C   0  0  0  0  0  0  0  0  0  0  0  0
   -4.0471    1.6655  -20.5978 N   0  0  0  0  0  0  0  0  0  0  0  0
   -3.5263    2.6526  -21.5443 C   0  0  0  0  0  0  0  0  0  0  0  0
   -4.0400    2.3064  -22.9571 C   0  0  0  0  0  0  0  0  0  0  0  0
   -3.2610    1.1642  -23.6394 C   0  0  0  0  0  0  0  0  0  0  0  0
   -4.0420    3.5479  -23.8648 C   0  0  0  0  0  0  0  0  0  0  0  0
   -5.7502    1.7513  -22.7084 S   0  0  0  0  0  0  0  0  0  0  0  0
   -3.5232    0.7658  -20.7102 H   0  0  0  0  0  0  0  0  0  0  0  0
   -2.0222    2.7832  -21.4340 C   0  0  0  0  0  0  0  0  0  0  0  0
   -1.2677    1.7770  -20.8369 O   0  0  0  0  0  0  0  0  0  0  0  0
   -1.4327    3.7958  -21.8956 O   0  0  0  0  0  0  0  0  0  0  0  0
   -1.7018    0.9501  -20.4453 H   0  0  0  0  0  0  0  0  0  0  0  0
   -7.4417    2.9328  -20.8861 C   0  0  0  0  0  0  0  0  0  0  0  0
   -7.7773    4.0863  -20.6718 O   0  0  0  0  0  0  0  0  0  0  0  0
  1 10  1  0  0  0
  1  2  2  0  0  0
  1  3  1  0  0  0
  3 19  1  0  0  0
  3  4  1  0  0  0
  5  6  1  0  0  0
  6  7  1  0  0  0
  6 10  2  0  0  0
  7  8  1  0  0  0
  8  9  2  0  0  0
  9 10  1  0  0  0
  9 11  1  0  0  0
 11 12  2  0  0  0
 11 17  1  0  0  0
 12 13  1  0  0  0
 12 14  1  0  0  0
 14 15  2  0  0  0
 15 16  1  0  0  0
 16 17  2  0  0  0
 17 18  1  0  0  0
 19 32  1  0  0  0
 19 20  1  0  0  0
 20 21  1  0  0  0
 20 26  1  0  0  0
 21 22  1  0  0  0
 21 27  1  0  0  0
 22 28  1  0  0  0
 22 23  1  0  0  0
 23 24  1  0  0  0
 23 25  1  0  0  0
 23 26  1  0  0  0
 28 29  1  0  0  0
 28 30  2  0  0  0
 29 31  1  0  0  0
 32 33  2  0  0  0
M  END
> <COMPND>
../0-casp/USpIc4.pdb

> <AUTHOR>
GENERATED BY OPEN BABEL 3.1.0

> <MASTER>
        0    0    0    0    0    0    0    0   33    0   33    0

> <minimizedAffinity>
-5.00876

> <CNNscore>
0.3670323193

> <CNNaffinity>
4.7119626999

> <CNN_VS>
1.7294425964

> <CNNaffinity_variance>
0.1443638504

$$$$
