


 33 35  0  0  0  0  0  0  0  0999 V2000
   -8.6080    3.2165  -15.4586 C   0  0  0  0  0  0  0  0  0  0  0  0
   -8.6450    4.0998  -16.3585 O   0  0  0  0  0  0  0  0  0  0  0  0
   -9.7989    2.8941  -14.7250 N   0  0  0  0  0  0  0  0  0  0  0  0
   -9.8270    1.9979  -14.1887 H   0  0  0  0  0  0  0  0  0  0  0  0
   -6.7846    3.4468  -12.8449 C   0  0  0  0  0  0  0  0  0  0  0  0
   -6.5393    2.6102  -14.0574 C   0  0  0  0  0  0  0  0  0  0  0  0
   -5.4857    1.8454  -14.2220 O   0  0  0  0  0  0  0  0  0  0  0  0
   -5.5185    1.2334  -15.3703 N   0  0  0  0  0  0  0  0  0  0  0  0
   -6.6519    1.6176  -15.9903 C   0  0  0  0  0  0  0  0  0  0  0  0
   -7.3377    2.5125  -15.1823 C   0  0  0  0  0  0  0  0  0  0  0  0
   -7.0803    1.0851  -17.2985 C   0  0  0  0  0  0  0  0  0  0  0  0
   -7.6400   -0.2074  -17.3996 C   0  0  0  0  0  0  0  0  0  0  0  0
   -7.7586   -1.2775  -16.0057 Cl  0  0  0  0  0  0  0  0  0  0  0  0
   -8.0867   -0.6809  -18.6387 C   0  0  0  0  0  0  0  0  0  0  0  0
   -7.9733    0.1147  -19.7785 C   0  0  0  0  0  0  0  0  0  0  0  0
   -7.4073    1.3872  -19.6916 C   0  0  0  0  0  0  0  0  0  0  0  0
   -6.9566    1.8769  -18.4594 C   0  0  0  0  0  0  0  0  0  0  0  0
   -6.2902    3.5053  -18.3981 Cl  0  0  0  0  0  0  0  0  0  0  0  0
  -10.9891    3.7501  -14.7521 C   0  0  0  0  0  0  0  0  0  0  0  0
  -12.2272    2.9459  -15.2033 C   0  0  0  0  0  0  0  0  0  0  0  0
  -11.8919    2.1085  -16.3627 N   0  0  0  0  0  0  0  0  0  0  0  0
  -12.2884    2.8278  -17.5739 C   0  0  0  0  0  0  0  0  0  0  0  0
  -13.6666    3.4790  -17.3370 C   0  0  0  0  0  0  0  0  0  0  0  0
  -14.8488    2.4983  -17.4698 C   0  0  0  0  0  0  0  0  0  0  0  0
  -13.8800    4.6792  -18.2746 C   0  0  0  0  0  0  0  0  0  0  0  0
  -13.6148    4.0692  -15.6212 S   0  0  0  0  0  0  0  0  0  0  0  0
  -12.4441    1.2218  -16.2884 H   0  0  0  0  0  0  0  0  0  0  0  0
  -12.2130    1.9364  -18.7950 C   0  0  0  0  0  0  0  0  0  0  0  0
  -12.2602    0.5512  -18.6624 O   0  0  0  0  0  0  0  0  0  0  0  0
  -12.1233    2.4365  -19.9473 O   0  0  0  0  0  0  0  0  0  0  0  0
  -12.3235    0.1073  -17.7545 H   0  0  0  0  0  0  0  0  0  0  0  0
  -11.2095    4.3229  -13.3777 C   0  0  0  0  0  0  0  0  0  0  0  0
  -10.2607    4.6606  -12.6886 O   0  0  0  0  0  0  0  0  0  0  0  0
  1 10  1  0  0  0
  1  2  2  0  0  0
  1  3  1  0  0  0
  3 19  1  0  0  0
  3  4  1  0  0  0
  5  6  1  0  0  0
  6  7  1  0  0  0
  6 10  2  0  0  0
  7  8  1  0  0  0
  8  9  2  0  0  0
  9 10  1  0  0  0
  9 11  1  0  0  0
 11 12  2  0  0  0
 11 17  1  0  0  0
 12 13  1  0  0  0
 12 14  1  0  0  0
 14 15  2  0  0  0
 15 16  1  0  0  0
 16 17  2  0  0  0
 17 18  1  0  0  0
 19 32  1  0  0  0
 19 20  1  0  0  0
 20 21  1  0  0  0
 20 26  1  0  0  0
 21 22  1  0  0  0
 21 27  1  0  0  0
 22 28  1  0  0  0
 22 23  1  0  0  0
 23 24  1  0  0  0
 23 25  1  0  0  0
 23 26  1  0  0  0
 28 29  1  0  0  0
 28 30  2  0  0  0
 29 31  1  0  0  0
 32 33  2  0  0  0
M  END
> <COMPND>
../0-casp/USpIc4.pdb

> <AUTHOR>
GENERATED BY OPEN BABEL 3.1.0

> <MASTER>
        0    0    0    0    0    0    0    0   33    0   33    0

> <minimizedAffinity>
-6.58874

> <CNNscore>
0.4596991539

> <CNNaffinity>
5.1082372665

> <CNN_VS>
2.3482522964

> <CNNaffinity_variance>
0.1151944995

$$$$



 33 35  0  0  0  0  0  0  0  0999 V2000
   -8.5542    2.9841  -17.0741 C   0  0  0  0  0  0  0  0  0  0  0  0
   -8.4114    4.0827  -17.6773 O   0  0  0  0  0  0  0  0  0  0  0  0
   -9.7530    2.2171  -17.2614 N   0  0  0  0  0  0  0  0  0  0  0  0
   -9.7487    1.2096  -16.9848 H   0  0  0  0  0  0  0  0  0  0  0  0
   -7.7649    4.0703  -14.1747 C   0  0  0  0  0  0  0  0  0  0  0  0
   -7.1218    2.9602  -14.9391 C   0  0  0  0  0  0  0  0  0  0  0  0
   -6.0902    2.2725  -14.5088 O   0  0  0  0  0  0  0  0  0  0  0  0
   -5.7264    1.3713  -15.3746 N   0  0  0  0  0  0  0  0  0  0  0  0
   -6.5623    1.4743  -16.4269 C   0  0  0  0  0  0  0  0  0  0  0  0
   -7.4743    2.4929  -16.1920 C   0  0  0  0  0  0  0  0  0  0  0  0
   -6.5110    0.5722  -17.5939 C   0  0  0  0  0  0  0  0  0  0  0  0
   -6.9397   -0.7689  -17.4845 C   0  0  0  0  0  0  0  0  0  0  0  0
   -7.4527   -1.4553  -15.9457 Cl  0  0  0  0  0  0  0  0  0  0  0  0
   -6.9312   -1.5996  -18.6110 C   0  0  0  0  0  0  0  0  0  0  0  0
   -6.4921   -1.1122  -19.8416 C   0  0  0  0  0  0  0  0  0  0  0  0
   -6.0519    0.2070  -19.9563 C   0  0  0  0  0  0  0  0  0  0  0  0
   -6.0551    1.0521  -18.8396 C   0  0  0  0  0  0  0  0  0  0  0  0
   -5.5300    2.7195  -19.0491 Cl  0  0  0  0  0  0  0  0  0  0  0  0
  -10.9559    2.7855  -17.8779 C   0  0  0  0  0  0  0  0  0  0  0  0
  -11.1193    2.2732  -19.3250 C   0  0  0  0  0  0  0  0  0  0  0  0
  -12.4470    1.6698  -19.5014 N   0  0  0  0  0  0  0  0  0  0  0  0
  -12.3175    0.2233  -19.3211 C   0  0  0  0  0  0  0  0  0  0  0  0
  -11.0390   -0.2550  -20.0395 C   0  0  0  0  0  0  0  0  0  0  0  0
  -11.2030   -0.4074  -21.5649 C   0  0  0  0  0  0  0  0  0  0  0  0
  -10.5271   -1.5747  -19.4381 C   0  0  0  0  0  0  0  0  0  0  0  0
   -9.8155    1.0502  -19.7325 S   0  0  0  0  0  0  0  0  0  0  0  0
  -12.7636    1.8714  -20.4790 H   0  0  0  0  0  0  0  0  0  0  0  0
  -13.5816   -0.4999  -19.7339 C   0  0  0  0  0  0  0  0  0  0  0  0
  -13.7255   -1.8638  -19.4943 O   0  0  0  0  0  0  0  0  0  0  0  0
  -14.5258    0.1260  -20.2842 O   0  0  0  0  0  0  0  0  0  0  0  0
  -12.9881   -2.4069  -19.0622 H   0  0  0  0  0  0  0  0  0  0  0  0
  -12.1543    2.4059  -17.0500 C   0  0  0  0  0  0  0  0  0  0  0  0
  -13.1231    3.1454  -16.9882 O   0  0  0  0  0  0  0  0  0  0  0  0
  1 10  1  0  0  0
  1  2  2  0  0  0
  1  3  1  0  0  0
  3 19  1  0  0  0
  3  4  1  0  0  0
  5  6  1  0  0  0
  6  7  1  0  0  0
  6 10  2  0  0  0
  7  8  1  0  0  0
  8  9  2  0  0  0
  9 10  1  0  0  0
  9 11  1  0  0  0
 11 12  2  0  0  0
 11 17  1  0  0  0
 12 13  1  0  0  0
 12 14  1  0  0  0
 14 15  2  0  0  0
 15 16  1  0  0  0
 16 17  2  0  0  0
 17 18  1  0  0  0
 19 32  1  0  0  0
 19 20  1  0  0  0
 20 21  1  0  0  0
 20 26  1  0  0  0
 21 22  1  0  0  0
 21 27  1  0  0  0
 22 28  1  0  0  0
 22 23  1  0  0  0
 23 24  1  0  0  0
 23 25  1  0  0  0
 23 26  1  0  0  0
 28 29  1  0  0  0
 28 30  2  0  0  0
 29 31  1  0  0  0
 32 33  2  0  0  0
M  END
> <COMPND>
../0-casp/USpIc4.pdb

> <AUTHOR>
GENERATED BY OPEN BABEL 3.1.0

> <MASTER>
        0    0    0    0    0    0    0    0   33    0   33    0

> <minimizedAffinity>
-5.19703

> <CNNscore>
0.3710292876

> <CNNaffinity>
4.8632960320

> <CNN_VS>
1.8044252396

> <CNNaffinity_variance>
0.4686480463

$$$$



 33 35  0  0  0  0  0  0  0  0999 V2000
   -8.4637    4.0720  -17.0275 C   0  0  0  0  0  0  0  0  0  0  0  0
   -9.5573    4.1930  -17.6444 O   0  0  0  0  0  0  0  0  0  0  0  0
   -8.3911    4.3988  -15.6317 N   0  0  0  0  0  0  0  0  0  0  0  0
   -7.5781    4.0459  -15.0785 H   0  0  0  0  0  0  0  0  0  0  0  0
   -6.2458    5.8083  -18.5361 C   0  0  0  0  0  0  0  0  0  0  0  0
   -6.3105    4.3216  -18.4103 C   0  0  0  0  0  0  0  0  0  0  0  0
   -5.4385    3.4998  -18.9455 O   0  0  0  0  0  0  0  0  0  0  0  0
   -5.7359    2.2590  -18.6883 N   0  0  0  0  0  0  0  0  0  0  0  0
   -6.8614    2.2683  -17.9468 C   0  0  0  0  0  0  0  0  0  0  0  0
   -7.2719    3.5787  -17.7499 C   0  0  0  0  0  0  0  0  0  0  0  0
   -7.4813    1.0457  -17.3995 C   0  0  0  0  0  0  0  0  0  0  0  0
   -8.4623    0.3462  -18.1360 C   0  0  0  0  0  0  0  0  0  0  0  0
   -9.0650    0.9451  -19.6788 Cl  0  0  0  0  0  0  0  0  0  0  0  0
   -9.0065   -0.8384  -17.6265 C   0  0  0  0  0  0  0  0  0  0  0  0
   -8.5914   -1.3281  -16.3885 C   0  0  0  0  0  0  0  0  0  0  0  0
   -7.6340   -0.6357  -15.6461 C   0  0  0  0  0  0  0  0  0  0  0  0
   -7.0781    0.5504  -16.1417 C   0  0  0  0  0  0  0  0  0  0  0  0
   -5.8429    1.3610  -15.1843 Cl  0  0  0  0  0  0  0  0  0  0  0  0
   -9.4448    5.1583  -14.9512 C   0  0  0  0  0  0  0  0  0  0  0  0
  -10.4069    4.2072  -14.2075 C   0  0  0  0  0  0  0  0  0  0  0  0
  -11.3512    3.6000  -15.1549 N   0  0  0  0  0  0  0  0  0  0  0  0
  -12.5864    4.3845  -15.1327 C   0  0  0  0  0  0  0  0  0  0  0  0
  -12.9242    4.7389  -13.6698 C   0  0  0  0  0  0  0  0  0  0  0  0
  -13.5813    3.5851  -12.8863 C   0  0  0  0  0  0  0  0  0  0  0  0
  -13.8149    5.9904  -13.5952 C   0  0  0  0  0  0  0  0  0  0  0  0
  -11.3230    5.1040  -12.8967 S   0  0  0  0  0  0  0  0  0  0  0  0
  -11.5520    2.6257  -14.8278 H   0  0  0  0  0  0  0  0  0  0  0  0
  -13.6980    3.6853  -15.8856 C   0  0  0  0  0  0  0  0  0  0  0  0
  -13.7845    2.2957  -15.8879 O   0  0  0  0  0  0  0  0  0  0  0  0
  -14.5681    4.3520  -16.5057 O   0  0  0  0  0  0  0  0  0  0  0  0
  -13.1014    1.7212  -15.4095 H   0  0  0  0  0  0  0  0  0  0  0  0
   -8.8067    6.1187  -13.9837 C   0  0  0  0  0  0  0  0  0  0  0  0
   -7.5918    6.1962  -13.8991 O   0  0  0  0  0  0  0  0  0  0  0  0
  1 10  1  0  0  0
  1  2  2  0  0  0
  1  3  1  0  0  0
  3 19  1  0  0  0
  3  4  1  0  0  0
  5  6  1  0  0  0
  6  7  1  0  0  0
  6 10  2  0  0  0
  7  8  1  0  0  0
  8  9  2  0  0  0
  9 10  1  0  0  0
  9 11  1  0  0  0
 11 12  2  0  0  0
 11 17  1  0  0  0
 12 13  1  0  0  0
 12 14  1  0  0  0
 14 15  2  0  0  0
 15 16  1  0  0  0
 16 17  2  0  0  0
 17 18  1  0  0  0
 19 32  1  0  0  0
 19 20  1  0  0  0
 20 21  1  0  0  0
 20 26  1  0  0  0
 21 22  1  0  0  0
 21 27  1  0  0  0
 22 28  1  0  0  0
 22 23  1  0  0  0
 23 24  1  0  0  0
 23 25  1  0  0  0
 23 26  1  0  0  0
 28 29  1  0  0  0
 28 30  2  0  0  0
 29 31  1  0  0  0
 32 33  2  0  0  0
M  END
> <COMPND>
../0-casp/USpIc4.pdb

> <AUTHOR>
GENERATED BY OPEN BABEL 3.1.0

> <MASTER>
        0    0    0    0    0    0    0    0   33    0   33    0

> <minimizedAffinity>
-5.77481

> <CNNscore>
0.3615090251

> <CNNaffinity>
5.0554518700

> <CNN_VS>
1.8275914192

> <CNNaffinity_variance>
0.0676728263

$$$$



 33 35  0  0  0  0  0  0  0  0999 V2000
   -7.9873    3.8222  -14.5881 C   0  0  0  0  0  0  0  0  0  0  0  0
   -7.9497    4.8542  -15.3125 O   0  0  0  0  0  0  0  0  0  0  0  0
   -9.0408    3.6629  -13.6262 N   0  0  0  0  0  0  0  0  0  0  0  0
   -9.2185    2.7108  -13.2344 H   0  0  0  0  0  0  0  0  0  0  0  0
   -5.5074    3.2256  -12.6636 C   0  0  0  0  0  0  0  0  0  0  0  0
   -5.8717    2.5189  -13.9277 C   0  0  0  0  0  0  0  0  0  0  0  0
   -5.1771    1.5331  -14.4453 O   0  0  0  0  0  0  0  0  0  0  0  0
   -5.7122    1.1055  -15.5521 N   0  0  0  0  0  0  0  0  0  0  0  0
   -6.8140    1.8502  -15.7714 C   0  0  0  0  0  0  0  0  0  0  0  0
   -6.9511    2.7806  -14.7517 C   0  0  0  0  0  0  0  0  0  0  0  0
   -7.7334    1.6230  -16.9035 C   0  0  0  0  0  0  0  0  0  0  0  0
   -8.6963    0.5914  -16.8512 C   0  0  0  0  0  0  0  0  0  0  0  0
   -8.7807   -0.5295  -15.4952 Cl  0  0  0  0  0  0  0  0  0  0  0  0
   -9.5937    0.4182  -17.9112 C   0  0  0  0  0  0  0  0  0  0  0  0
   -9.5363    1.2547  -19.0256 C   0  0  0  0  0  0  0  0  0  0  0  0
   -8.5783    2.2670  -19.0937 C   0  0  0  0  0  0  0  0  0  0  0  0
   -7.6736    2.4549  -18.0412 C   0  0  0  0  0  0  0  0  0  0  0  0
   -6.5135    3.7740  -18.1590 Cl  0  0  0  0  0  0  0  0  0  0  0  0
   -9.9060    4.7761  -13.2234 C   0  0  0  0  0  0  0  0  0  0  0  0
  -11.3855    4.4497  -13.5193 C   0  0  0  0  0  0  0  0  0  0  0  0
  -11.5036    3.7638  -14.8130 N   0  0  0  0  0  0  0  0  0  0  0  0
  -11.8309    4.7637  -15.8303 C   0  0  0  0  0  0  0  0  0  0  0  0
  -12.8863    5.7309  -15.2557 C   0  0  0  0  0  0  0  0  0  0  0  0
  -14.3212    5.1672  -15.2734 C   0  0  0  0  0  0  0  0  0  0  0  0
  -12.8513    7.0846  -15.9846 C   0  0  0  0  0  0  0  0  0  0  0  0
  -12.3996    5.9772  -13.5244 S   0  0  0  0  0  0  0  0  0  0  0  0
  -12.2872    3.0731  -14.7396 H   0  0  0  0  0  0  0  0  0  0  0  0
  -12.2188    4.1119  -17.1403 C   0  0  0  0  0  0  0  0  0  0  0  0
  -12.8323    2.8621  -17.1531 O   0  0  0  0  0  0  0  0  0  0  0  0
  -12.0067    4.6988  -18.2341 O   0  0  0  0  0  0  0  0  0  0  0  0
  -13.0137    2.3517  -16.2974 H   0  0  0  0  0  0  0  0  0  0  0  0
   -9.7117    5.0380  -11.7539 C   0  0  0  0  0  0  0  0  0  0  0  0
   -8.6731    4.7162  -11.2000 O   0  0  0  0  0  0  0  0  0  0  0  0
  1 10  1  0  0  0
  1  2  2  0  0  0
  1  3  1  0  0  0
  3 19  1  0  0  0
  3  4  1  0  0  0
  5  6  1  0  0  0
  6  7  1  0  0  0
  6 10  2  0  0  0
  7  8  1  0  0  0
  8  9  2  0  0  0
  9 10  1  0  0  0
  9 11  1  0  0  0
 11 12  2  0  0  0
 11 17  1  0  0  0
 12 13  1  0  0  0
 12 14  1  0  0  0
 14 15  2  0  0  0
 15 16  1  0  0  0
 16 17  2  0  0  0
 17 18  1  0  0  0
 19 32  1  0  0  0
 19 20  1  0  0  0
 20 21  1  0  0  0
 20 26  1  0  0  0
 21 22  1  0  0  0
 21 27  1  0  0  0
 22 28  1  0  0  0
 22 23  1  0  0  0
 23 24  1  0  0  0
 23 25  1  0  0  0
 23 26  1  0  0  0
 28 29  1  0  0  0
 28 30  2  0  0  0
 29 31  1  0  0  0
 32 33  2  0  0  0
M  END
> <COMPND>
../0-casp/USpIc4.pdb

> <AUTHOR>
GENERATED BY OPEN BABEL 3.1.0

> <MASTER>
        0    0    0    0    0    0    0    0   33    0   33    0

> <minimizedAffinity>
-6.90628

> <CNNscore>
0.3572461605

> <CNNaffinity>
5.2956376076

> <CNN_VS>
1.8918461800

> <CNNaffinity_variance>
0.1812364012

$$$$



 33 35  0  0  0  0  0  0  0  0999 V2000
   -8.7706    2.8362  -17.4757 C   0  0  0  0  0  0  0  0  0  0  0  0
   -8.5078    3.4504  -18.5457 O   0  0  0  0  0  0  0  0  0  0  0  0
  -10.1310    2.5082  -17.1562 N   0  0  0  0  0  0  0  0  0  0  0  0
  -10.3108    1.7808  -16.4281 H   0  0  0  0  0  0  0  0  0  0  0  0
   -7.9068    4.2498  -14.7435 C   0  0  0  0  0  0  0  0  0  0  0  0
   -7.2835    3.0565  -15.3899 C   0  0  0  0  0  0  0  0  0  0  0  0
   -6.2411    2.4205  -14.9092 O   0  0  0  0  0  0  0  0  0  0  0  0
   -5.8996    1.4237  -15.6734 N   0  0  0  0  0  0  0  0  0  0  0  0
   -6.7625    1.4061  -16.7087 C   0  0  0  0  0  0  0  0  0  0  0  0
   -7.6682    2.4477  -16.5705 C   0  0  0  0  0  0  0  0  0  0  0  0
   -6.7413    0.3743  -17.7638 C   0  0  0  0  0  0  0  0  0  0  0  0
   -6.0800    0.6127  -18.9885 C   0  0  0  0  0  0  0  0  0  0  0  0
   -5.3454    2.1705  -19.3571 Cl  0  0  0  0  0  0  0  0  0  0  0  0
   -6.0261   -0.3924  -19.9612 C   0  0  0  0  0  0  0  0  0  0  0  0
   -6.6312   -1.6276  -19.7310 C   0  0  0  0  0  0  0  0  0  0  0  0
   -7.3005   -1.8674  -18.5303 C   0  0  0  0  0  0  0  0  0  0  0  0
   -7.3628   -0.8732  -17.5458 C   0  0  0  0  0  0  0  0  0  0  0  0
   -8.1826   -1.2430  -16.0323 Cl  0  0  0  0  0  0  0  0  0  0  0  0
  -11.2666    3.1167  -17.8562 C   0  0  0  0  0  0  0  0  0  0  0  0
  -12.2963    2.0401  -18.2611 C   0  0  0  0  0  0  0  0  0  0  0  0
  -11.6757    0.7089  -18.2295 N   0  0  0  0  0  0  0  0  0  0  0  0
  -11.2405    0.3770  -19.5867 C   0  0  0  0  0  0  0  0  0  0  0  0
  -12.3408    0.8036  -20.5802 C   0  0  0  0  0  0  0  0  0  0  0  0
  -13.5220   -0.1839  -20.6614 C   0  0  0  0  0  0  0  0  0  0  0  0
  -11.7589    1.0335  -21.9850 C   0  0  0  0  0  0  0  0  0  0  0  0
  -12.9679    2.3793  -19.9331 S   0  0  0  0  0  0  0  0  0  0  0  0
  -12.4038    0.0228  -17.9202 H   0  0  0  0  0  0  0  0  0  0  0  0
  -10.8222   -1.0740  -19.6929 C   0  0  0  0  0  0  0  0  0  0  0  0
  -11.2446   -2.0022  -18.7450 O   0  0  0  0  0  0  0  0  0  0  0  0
  -10.1006   -1.4631  -20.6489 O   0  0  0  0  0  0  0  0  0  0  0  0
  -11.8185   -1.7306  -17.9561 H   0  0  0  0  0  0  0  0  0  0  0  0
  -11.9052    4.1385  -16.9541 C   0  0  0  0  0  0  0  0  0  0  0  0
  -11.5188    4.2769  -15.8049 O   0  0  0  0  0  0  0  0  0  0  0  0
  1 10  1  0  0  0
  1  2  2  0  0  0
  1  3  1  0  0  0
  3 19  1  0  0  0
  3  4  1  0  0  0
  5  6  1  0  0  0
  6  7  1  0  0  0
  6 10  2  0  0  0
  7  8  1  0  0  0
  8  9  2  0  0  0
  9 10  1  0  0  0
  9 11  1  0  0  0
 11 12  2  0  0  0
 11 17  1  0  0  0
 12 13  1  0  0  0
 12 14  1  0  0  0
 14 15  2  0  0  0
 15 16  1  0  0  0
 16 17  2  0  0  0
 17 18  1  0  0  0
 19 32  1  0  0  0
 19 20  1  0  0  0
 20 21  1  0  0  0
 20 26  1  0  0  0
 21 22  1  0  0  0
 21 27  1  0  0  0
 22 28  1  0  0  0
 22 23  1  0  0  0
 23 24  1  0  0  0
 23 25  1  0  0  0
 23 26  1  0  0  0
 28 29  1  0  0  0
 28 30  2  0  0  0
 29 31  1  0  0  0
 32 33  2  0  0  0
M  END
> <COMPND>
../0-casp/USpIc4.pdb

> <AUTHOR>
GENERATED BY OPEN BABEL 3.1.0

> <MASTER>
        0    0    0    0    0    0    0    0   33    0   33    0

> <minimizedAffinity>
-6.03533

> <CNNscore>
0.3001074195

> <CNNaffinity>
4.8150343895

> <CNN_VS>
1.4450275898

> <CNNaffinity_variance>
0.5777869225

$$$$



 33 35  0  0  0  0  0  0  0  0999 V2000
   -9.0191    2.2383  -17.0468 C   0  0  0  0  0  0  0  0  0  0  0  0
   -9.8336    1.2804  -17.1474 O   0  0  0  0  0  0  0  0  0  0  0  0
   -9.3028    3.4879  -17.6937 N   0  0  0  0  0  0  0  0  0  0  0  0
   -8.7770    4.3378  -17.3891 H   0  0  0  0  0  0  0  0  0  0  0  0
   -8.3485    3.5248  -14.2000 C   0  0  0  0  0  0  0  0  0  0  0  0
   -7.4859    2.6217  -15.0188 C   0  0  0  0  0  0  0  0  0  0  0  0
   -6.2795    2.2414  -14.6693 O   0  0  0  0  0  0  0  0  0  0  0  0
   -5.7485    1.4632  -15.5675 N   0  0  0  0  0  0  0  0  0  0  0  0
   -6.6536    1.3272  -16.5569 C   0  0  0  0  0  0  0  0  0  0  0  0
   -7.7872    2.0647  -16.2482 C   0  0  0  0  0  0  0  0  0  0  0  0
   -6.4439    0.4610  -17.7334 C   0  0  0  0  0  0  0  0  0  0  0  0
   -6.0247    1.0108  -18.9647 C   0  0  0  0  0  0  0  0  0  0  0  0
   -5.8335    2.7476  -19.1868 Cl  0  0  0  0  0  0  0  0  0  0  0  0
   -5.7828    0.1720  -20.0588 C   0  0  0  0  0  0  0  0  0  0  0  0
   -5.9628   -1.2060  -19.9423 C   0  0  0  0  0  0  0  0  0  0  0  0
   -6.3918   -1.7573  -18.7344 C   0  0  0  0  0  0  0  0  0  0  0  0
   -6.6372   -0.9325  -17.6294 C   0  0  0  0  0  0  0  0  0  0  0  0
   -7.1353   -1.6839  -16.1172 Cl  0  0  0  0  0  0  0  0  0  0  0  0
  -10.3411    3.6180  -18.7208 C   0  0  0  0  0  0  0  0  0  0  0  0
  -11.4091    4.6450  -18.2875 C   0  0  0  0  0  0  0  0  0  0  0  0
  -11.4802    4.7137  -16.8218 N   0  0  0  0  0  0  0  0  0  0  0  0
  -12.5681    3.8416  -16.3773 C   0  0  0  0  0  0  0  0  0  0  0  0
  -13.7746    4.0318  -17.3194 C   0  0  0  0  0  0  0  0  0  0  0  0
  -14.6004    5.2997  -17.0239 C   0  0  0  0  0  0  0  0  0  0  0  0
  -14.6925    2.7980  -17.2990 C   0  0  0  0  0  0  0  0  0  0  0  0
  -13.0508    4.2047  -18.9750 S   0  0  0  0  0  0  0  0  0  0  0  0
  -11.6975    5.7032  -16.5571 H   0  0  0  0  0  0  0  0  0  0  0  0
  -12.8751    4.0465  -14.9092 C   0  0  0  0  0  0  0  0  0  0  0  0
  -13.5346    3.0599  -14.1811 O   0  0  0  0  0  0  0  0  0  0  0  0
  -12.5233    5.1046  -14.3240 O   0  0  0  0  0  0  0  0  0  0  0  0
  -13.8425    2.1978  -14.6141 H   0  0  0  0  0  0  0  0  0  0  0  0
   -9.6982    4.0452  -20.0130 C   0  0  0  0  0  0  0  0  0  0  0  0
  -10.2698    3.8684  -21.0767 O   0  0  0  0  0  0  0  0  0  0  0  0
  1 10  1  0  0  0
  1  2  2  0  0  0
  1  3  1  0  0  0
  3 19  1  0  0  0
  3  4  1  0  0  0
  5  6  1  0  0  0
  6  7  1  0  0  0
  6 10  2  0  0  0
  7  8  1  0  0  0
  8  9  2  0  0  0
  9 10  1  0  0  0
  9 11  1  0  0  0
 11 12  2  0  0  0
 11 17  1  0  0  0
 12 13  1  0  0  0
 12 14  1  0  0  0
 14 15  2  0  0  0
 15 16  1  0  0  0
 16 17  2  0  0  0
 17 18  1  0  0  0
 19 32  1  0  0  0
 19 20  1  0  0  0
 20 21  1  0  0  0
 20 26  1  0  0  0
 21 22  1  0  0  0
 21 27  1  0  0  0
 22 28  1  0  0  0
 22 23  1  0  0  0
 23 24  1  0  0  0
 23 25  1  0  0  0
 23 26  1  0  0  0
 28 29  1  0  0  0
 28 30  2  0  0  0
 29 31  1  0  0  0
 32 33  2  0  0  0
M  END
> <COMPND>
../0-casp/USpIc4.pdb

> <AUTHOR>
GENERATED BY OPEN BABEL 3.1.0

> <MASTER>
        0    0    0    0    0    0    0    0   33    0   33    0

> <minimizedAffinity>
-5.55836

> <CNNscore>
0.2872304320

> <CNNaffinity>
4.7950091362

> <CNN_VS>
1.3772724867

> <CNNaffinity_variance>
0.1938195527

$$$$



 33 35  0  0  0  0  0  0  0  0999 V2000
   -8.6601    3.5753  -15.4680 C   0  0  0  0  0  0  0  0  0  0  0  0
   -8.5962    4.5372  -16.2816 O   0  0  0  0  0  0  0  0  0  0  0  0
   -9.9089    3.2559  -14.8364 N   0  0  0  0  0  0  0  0  0  0  0  0
  -10.0160    2.3179  -14.3891 H   0  0  0  0  0  0  0  0  0  0  0  0
   -6.7472    3.7748  -12.9165 C   0  0  0  0  0  0  0  0  0  0  0  0
   -6.6104    2.8613  -14.0899 C   0  0  0  0  0  0  0  0  0  0  0  0
   -5.6314    2.0005  -14.2412 O   0  0  0  0  0  0  0  0  0  0  0  0
   -5.7504    1.3377  -15.3551 N   0  0  0  0  0  0  0  0  0  0  0  0
   -6.8646    1.7879  -15.9654 C   0  0  0  0  0  0  0  0  0  0  0  0
   -7.4471    2.7779  -15.1877 C   0  0  0  0  0  0  0  0  0  0  0  0
   -7.3755    1.2308  -17.2331 C   0  0  0  0  0  0  0  0  0  0  0  0
   -8.1109    0.0253  -17.2434 C   0  0  0  0  0  0  0  0  0  0  0  0
   -8.3642   -0.9181  -15.7778 Cl  0  0  0  0  0  0  0  0  0  0  0  0
   -8.6310   -0.4662  -18.4462 C   0  0  0  0  0  0  0  0  0  0  0  0
   -8.4187    0.2245  -19.6390 C   0  0  0  0  0  0  0  0  0  0  0  0
   -7.6801    1.4083  -19.6417 C   0  0  0  0  0  0  0  0  0  0  0  0
   -7.1537    1.9149  -18.4468 C   0  0  0  0  0  0  0  0  0  0  0  0
   -6.2662    3.4344  -18.4998 Cl  0  0  0  0  0  0  0  0  0  0  0  0
  -11.0495    4.1772  -14.8502 C   0  0  0  0  0  0  0  0  0  0  0  0
  -11.9109    3.9575  -16.1123 C   0  0  0  0  0  0  0  0  0  0  0  0
  -11.7098    5.0611  -17.0609 N   0  0  0  0  0  0  0  0  0  0  0  0
  -12.7838    6.0348  -16.8609 C   0  0  0  0  0  0  0  0  0  0  0  0
  -14.1141    5.2766  -16.6734 C   0  0  0  0  0  0  0  0  0  0  0  0
  -14.7385    4.7807  -17.9930 C   0  0  0  0  0  0  0  0  0  0  0  0
  -15.1353    6.1324  -15.9053 C   0  0  0  0  0  0  0  0  0  0  0  0
  -13.6859    3.8240  -15.6726 S   0  0  0  0  0  0  0  0  0  0  0  0
  -11.7731    4.6674  -18.0292 H   0  0  0  0  0  0  0  0  0  0  0  0
  -12.7992    7.0736  -17.9619 C   0  0  0  0  0  0  0  0  0  0  0  0
  -13.4374    8.2961  -17.7707 O   0  0  0  0  0  0  0  0  0  0  0  0
  -12.2209    6.8519  -19.0584 O   0  0  0  0  0  0  0  0  0  0  0  0
  -13.9216    8.5123  -16.9080 H   0  0  0  0  0  0  0  0  0  0  0  0
  -11.8723    3.9537  -13.6097 C   0  0  0  0  0  0  0  0  0  0  0  0
  -11.8057    4.7342  -12.6740 O   0  0  0  0  0  0  0  0  0  0  0  0
  1 10  1  0  0  0
  1  2  2  0  0  0
  1  3  1  0  0  0
  3 19  1  0  0  0
  3  4  1  0  0  0
  5  6  1  0  0  0
  6  7  1  0  0  0
  6 10  2  0  0  0
  7  8  1  0  0  0
  8  9  2  0  0  0
  9 10  1  0  0  0
  9 11  1  0  0  0
 11 12  2  0  0  0
 11 17  1  0  0  0
 12 13  1  0  0  0
 12 14  1  0  0  0
 14 15  2  0  0  0
 15 16  1  0  0  0
 16 17  2  0  0  0
 17 18  1  0  0  0
 19 32  1  0  0  0
 19 20  1  0  0  0
 20 21  1  0  0  0
 20 26  1  0  0  0
 21 22  1  0  0  0
 21 27  1  0  0  0
 22 28  1  0  0  0
 22 23  1  0  0  0
 23 24  1  0  0  0
 23 25  1  0  0  0
 23 26  1  0  0  0
 28 29  1  0  0  0
 28 30  2  0  0  0
 29 31  1  0  0  0
 32 33  2  0  0  0
M  END
> <COMPND>
../0-casp/USpIc4.pdb

> <AUTHOR>
GENERATED BY OPEN BABEL 3.1.0

> <MASTER>
        0    0    0    0    0    0    0    0   33    0   33    0

> <minimizedAffinity>
-5.36963

> <CNNscore>
0.2737514079

> <CNNaffinity>
4.9414339066

> <CNN_VS>
1.3527244329

> <CNNaffinity_variance>
0.1325605512

$$$$



 33 35  0  0  0  0  0  0  0  0999 V2000
   -9.6945    2.2087  -17.8236 C   0  0  0  0  0  0  0  0  0  0  0  0
  -10.2424    1.0879  -17.6369 O   0  0  0  0  0  0  0  0  0  0  0  0
  -10.4509    3.4138  -17.6336 N   0  0  0  0  0  0  0  0  0  0  0  0
   -9.9338    4.3151  -17.5246 H   0  0  0  0  0  0  0  0  0  0  0  0
   -8.4639    1.6895  -20.7263 C   0  0  0  0  0  0  0  0  0  0  0  0
   -7.7297    2.0368  -19.4730 C   0  0  0  0  0  0  0  0  0  0  0  0
   -6.4252    2.1569  -19.3944 O   0  0  0  0  0  0  0  0  0  0  0  0
   -6.0485    2.4574  -18.1853 N   0  0  0  0  0  0  0  0  0  0  0  0
   -7.1638    2.5378  -17.4327 C   0  0  0  0  0  0  0  0  0  0  0  0
   -8.2719    2.2656  -18.2215 C   0  0  0  0  0  0  0  0  0  0  0  0
   -7.1540    2.9247  -16.0084 C   0  0  0  0  0  0  0  0  0  0  0  0
   -7.0887    1.9412  -14.9972 C   0  0  0  0  0  0  0  0  0  0  0  0
   -7.1204    0.2210  -15.3742 Cl  0  0  0  0  0  0  0  0  0  0  0  0
   -7.0310    2.3240  -13.6521 C   0  0  0  0  0  0  0  0  0  0  0  0
   -7.0472    3.6742  -13.3035 C   0  0  0  0  0  0  0  0  0  0  0  0
   -7.1274    4.6532  -14.2946 C   0  0  0  0  0  0  0  0  0  0  0  0
   -7.1844    4.2876  -15.6453 C   0  0  0  0  0  0  0  0  0  0  0  0
   -7.2412    5.5635  -16.8571 Cl  0  0  0  0  0  0  0  0  0  0  0  0
  -11.9135    3.4103  -17.5309 C   0  0  0  0  0  0  0  0  0  0  0  0
  -12.4068    4.6462  -16.7484 C   0  0  0  0  0  0  0  0  0  0  0  0
  -11.3395    5.1510  -15.8743 N   0  0  0  0  0  0  0  0  0  0  0  0
  -11.5444    4.5936  -14.5368 C   0  0  0  0  0  0  0  0  0  0  0  0
  -13.0486    4.6502  -14.1995 C   0  0  0  0  0  0  0  0  0  0  0  0
  -13.5331    6.0431  -13.7501 C   0  0  0  0  0  0  0  0  0  0  0  0
  -13.4165    3.6039  -13.1341 C   0  0  0  0  0  0  0  0  0  0  0  0
  -13.8908    4.2355  -15.7531 S   0  0  0  0  0  0  0  0  0  0  0  0
  -11.4247    6.1939  -15.8332 H   0  0  0  0  0  0  0  0  0  0  0  0
  -10.6436    5.2581  -13.5178 C   0  0  0  0  0  0  0  0  0  0  0  0
  -10.3393    4.6175  -12.3197 O   0  0  0  0  0  0  0  0  0  0  0  0
  -10.1449    6.3914  -13.7477 O   0  0  0  0  0  0  0  0  0  0  0  0
  -10.7253    3.7097  -12.0908 H   0  0  0  0  0  0  0  0  0  0  0  0
  -12.4999    3.4004  -18.9172 C   0  0  0  0  0  0  0  0  0  0  0  0
  -11.9992    4.0704  -19.8057 O   0  0  0  0  0  0  0  0  0  0  0  0
  1 10  1  0  0  0
  1  2  2  0  0  0
  1  3  1  0  0  0
  3 19  1  0  0  0
  3  4  1  0  0  0
  5  6  1  0  0  0
  6  7  1  0  0  0
  6 10  2  0  0  0
  7  8  1  0  0  0
  8  9  2  0  0  0
  9 10  1  0  0  0
  9 11  1  0  0  0
 11 12  2  0  0  0
 11 17  1  0  0  0
 12 13  1  0  0  0
 12 14  1  0  0  0
 14 15  2  0  0  0
 15 16  1  0  0  0
 16 17  2  0  0  0
 17 18  1  0  0  0
 19 32  1  0  0  0
 19 20  1  0  0  0
 20 21  1  0  0  0
 20 26  1  0  0  0
 21 22  1  0  0  0
 21 27  1  0  0  0
 22 28  1  0  0  0
 22 23  1  0  0  0
 23 24  1  0  0  0
 23 25  1  0  0  0
 23 26  1  0  0  0
 28 29  1  0  0  0
 28 30  2  0  0  0
 29 31  1  0  0  0
 32 33  2  0  0  0
M  END
> <COMPND>
../0-casp/USpIc4.pdb

> <AUTHOR>
GENERATED BY OPEN BABEL 3.1.0

> <MASTER>
        0    0    0    0    0    0    0    0   33    0   33    0

> <minimizedAffinity>
-4.77991

> <CNNscore>
0.2567668557

> <CNNaffinity>
4.7721796036

> <CNN_VS>
1.2253375053

> <CNNaffinity_variance>
0.3892368972

$$$$



 33 35  0  0  0  0  0  0  0  0999 V2000
   -9.4634    3.4691  -14.9112 C   0  0  0  0  0  0  0  0  0  0  0  0
   -9.9862    3.2654  -13.7815 O   0  0  0  0  0  0  0  0  0  0  0  0
   -8.3880    2.6319  -15.3619 N   0  0  0  0  0  0  0  0  0  0  0  0
   -8.1506    2.6295  -16.3793 H   0  0  0  0  0  0  0  0  0  0  0  0
   -8.3499    6.4560  -15.1306 C   0  0  0  0  0  0  0  0  0  0  0  0
   -9.5066    5.8577  -15.8617 C   0  0  0  0  0  0  0  0  0  0  0  0
  -10.2614    6.5170  -16.7089 O   0  0  0  0  0  0  0  0  0  0  0  0
  -11.2012    5.7594  -17.1960 N   0  0  0  0  0  0  0  0  0  0  0  0
  -11.0549    4.5410  -16.6386 C   0  0  0  0  0  0  0  0  0  0  0  0
   -9.9779    4.5612  -15.7645 C   0  0  0  0  0  0  0  0  0  0  0  0
  -11.8985    3.3823  -16.9907 C   0  0  0  0  0  0  0  0  0  0  0  0
  -13.0984    3.1282  -16.2908 C   0  0  0  0  0  0  0  0  0  0  0  0
  -13.5917    4.1064  -14.9117 Cl  0  0  0  0  0  0  0  0  0  0  0  0
  -13.9133    2.0542  -16.6671 C   0  0  0  0  0  0  0  0  0  0  0  0
  -13.5415    1.2259  -17.7257 C   0  0  0  0  0  0  0  0  0  0  0  0
  -12.3500    1.4594  -18.4133 C   0  0  0  0  0  0  0  0  0  0  0  0
  -11.5237    2.5304  -18.0508 C   0  0  0  0  0  0  0  0  0  0  0  0
  -10.0533    2.8059  -18.9791 Cl  0  0  0  0  0  0  0  0  0  0  0  0
   -7.6562    1.7433  -14.4537 C   0  0  0  0  0  0  0  0  0  0  0  0
   -6.7587    0.7715  -15.2496 C   0  0  0  0  0  0  0  0  0  0  0  0
   -6.1584    1.4627  -16.3985 N   0  0  0  0  0  0  0  0  0  0  0  0
   -6.9846    1.1916  -17.5756 C   0  0  0  0  0  0  0  0  0  0  0  0
   -7.3897   -0.2969  -17.5667 C   0  0  0  0  0  0  0  0  0  0  0  0
   -6.2804   -1.2461  -18.0621 C   0  0  0  0  0  0  0  0  0  0  0  0
   -8.6722   -0.5261  -18.3838 C   0  0  0  0  0  0  0  0  0  0  0  0
   -7.7211   -0.6796  -15.8236 S   0  0  0  0  0  0  0  0  0  0  0  0
   -5.2007    1.0661  -16.5470 H   0  0  0  0  0  0  0  0  0  0  0  0
   -6.3035    1.6528  -18.8463 C   0  0  0  0  0  0  0  0  0  0  0  0
   -7.0105    1.7155  -20.0440 O   0  0  0  0  0  0  0  0  0  0  0  0
   -5.0934    2.0014  -18.8329 O   0  0  0  0  0  0  0  0  0  0  0  0
   -7.9824    1.4367  -20.1013 H   0  0  0  0  0  0  0  0  0  0  0  0
   -6.8229    2.5792  -13.5196 C   0  0  0  0  0  0  0  0  0  0  0  0
   -5.8688    3.2129  -13.9407 O   0  0  0  0  0  0  0  0  0  0  0  0
  1 10  1  0  0  0
  1  2  2  0  0  0
  1  3  1  0  0  0
  3 19  1  0  0  0
  3  4  1  0  0  0
  5  6  1  0  0  0
  6  7  1  0  0  0
  6 10  2  0  0  0
  7  8  1  0  0  0
  8  9  2  0  0  0
  9 10  1  0  0  0
  9 11  1  0  0  0
 11 12  2  0  0  0
 11 17  1  0  0  0
 12 13  1  0  0  0
 12 14  1  0  0  0
 14 15  2  0  0  0
 15 16  1  0  0  0
 16 17  2  0  0  0
 17 18  1  0  0  0
 19 32  1  0  0  0
 19 20  1  0  0  0
 20 21  1  0  0  0
 20 26  1  0  0  0
 21 22  1  0  0  0
 21 27  1  0  0  0
 22 28  1  0  0  0
 22 23  1  0  0  0
 23 24  1  0  0  0
 23 25  1  0  0  0
 23 26  1  0  0  0
 28 29  1  0  0  0
 28 30  2  0  0  0
 29 31  1  0  0  0
 32 33  2  0  0  0
M  END
> <COMPND>
../0-casp/USpIc4.pdb

> <AUTHOR>
GENERATED BY OPEN BABEL 3.1.0

> <MASTER>
        0    0    0    0    0    0    0    0   33    0   33    0

> <minimizedAffinity>
-5.67959

> <CNNscore>
0.2400872260

> <CNNaffinity>
4.9349312782

> <CNN_VS>
1.1848139763

> <CNNaffinity_variance>
0.3052412868

$$$$
